/*---------------------------------------------------------------------------*\
| =========                 |                                                 |
| \\      /  F ield         | OpenFOAM: The Open Source CFD Toolbox           |
|  \\    /   O peration     | Version:  dev                                   |
|   \\  /    A nd           | Web:      www.OpenFOAM.org                      |
|    \\/     M anipulation  |                                                 |
\*---------------------------------------------------------------------------*/
Build  : dev-907bb58e9f78
Exec   : /home/taher/OpenFOAM/OpenFOAM-dev/platforms/linux64IccDPInt32Opt/bin/blockMesh
Date   : Jan 22 2018
Time   : 11:02:53
Host   : "cfd-lab"
PID    : 6781
I/O    : uncollated
Case   : /home/taher/OpenFOAM/taher-dev/run/validation_cases/lidDrivenCavity
nProcs : 1
sigFpe : Enabling floating point exception trapping (FOAM_SIGFPE).
fileModificationChecking : Monitoring run-time modified files using timeStampMaster (fileModificationSkew 10)
allowSystemOperations : Allowing user-supplied system call operations

// * * * * * * * * * * * * * * * * * * * * * * * * * * * * * * * * * * * * * //
Create time

Creating block mesh from
    "/home/taher/OpenFOAM/taher-dev/run/validation_cases/lidDrivenCavity/system/blockMeshDict"
Creating block edges
No non-planar block faces defined
Creating topology blocks
Creating topology patches

Creating block mesh topology

Check topology

	Basic statistics
		Number of internal faces : 0
		Number of boundary faces : 6
		Number of defined boundary faces : 6
		Number of undefined boundary faces : 0
	Checking patch -> block consistency

Creating block offsets
Creating merge list .

Creating polyMesh from blockMesh
Creating points with scale 0.1
    Block 0 cell size :
        i : 0.00333333 .. 0.00333333
        j : 0.00333333 .. 0.00333333
        k : 0.2 .. 0.2

Creating cells
Creating patches

Writing polyMesh
----------------
Mesh Information
----------------
  boundingBox: (0 0 -0.1) (0.1 0.1 0.1)
  nPoints: 1922
  nCells: 900
  nFaces: 3660
  nInternalFaces: 1740
----------------
Patches
----------------
  patch 0 (start: 1740 size: 30) name: movingWall
  patch 1 (start: 1770 size: 90) name: fixedWalls
  patch 2 (start: 1860 size: 1800) name: frontAndBack

End

/*---------------------------------------------------------------------------*\
| =========                 |                                                 |
| \\      /  F ield         | OpenFOAM: The Open Source CFD Toolbox           |
|  \\    /   O peration     | Version:  dev                                   |
|   \\  /    A nd           | Web:      www.OpenFOAM.org                      |
|    \\/     M anipulation  |                                                 |
\*---------------------------------------------------------------------------*/
Build  : dev-907bb58e9f78
Exec   : /home/taher/OpenFOAM/OpenFOAM-dev/platforms/linux64IccDPInt32Opt/bin/renumberMesh -overwrite
Date   : Jan 22 2018
Time   : 11:02:53
Host   : "cfd-lab"
PID    : 6786
I/O    : uncollated
Case   : /home/taher/OpenFOAM/taher-dev/run/validation_cases/lidDrivenCavity
nProcs : 1
sigFpe : Enabling floating point exception trapping (FOAM_SIGFPE).
fileModificationChecking : Monitoring run-time modified files using timeStampMaster (fileModificationSkew 10)
allowSystemOperations : Allowing user-supplied system call operations

// * * * * * * * * * * * * * * * * * * * * * * * * * * * * * * * * * * * * * //
Create time

Create mesh for time = 0

Mesh size: 900
Before renumbering :
    band           : 30
    profile        : 26129

Using default renumberMethod.

Selecting renumberMethod CuthillMcKee

Reading volScalarField p
Reading volVectorField U

After renumbering :
    band           : 30
    profile        : 18415

Writing mesh to "constant"

End

/*---------------------------------------------------------------------------*\
| =========                 |                                                 |
| \\      /  F ield         | OpenFOAM: The Open Source CFD Toolbox           |
|  \\    /   O peration     | Version:  dev                                   |
|   \\  /    A nd           | Web:      www.OpenFOAM.org                      |
|    \\/     M anipulation  |                                                 |
\*---------------------------------------------------------------------------*/
Build  : dev-907bb58e9f78
Exec   : /home/taher/OpenFOAM/OpenFOAM-dev/platforms/linux64IccDPInt32Opt/bin/icoFoam
Date   : Jan 22 2018
Time   : 11:02:54
Host   : "cfd-lab"
PID    : 6791
I/O    : uncollated
Case   : /home/taher/OpenFOAM/taher-dev/run/validation_cases/lidDrivenCavity
nProcs : 1
sigFpe : Enabling floating point exception trapping (FOAM_SIGFPE).
fileModificationChecking : Monitoring run-time modified files using timeStampMaster (fileModificationSkew 10)
allowSystemOperations : Allowing user-supplied system call operations

// * * * * * * * * * * * * * * * * * * * * * * * * * * * * * * * * * * * * * //
Create time

Create mesh for time = 0


PISO: Operating solver in PISO mode

Reading transportProperties

Using #calcEntry at line 23 in file "/home/taher/OpenFOAM/taher-dev/run/validation_cases/lidDrivenCavity/constant/transportProperties"
Using #codeStream with "/home/taher/OpenFOAM/taher-dev/run/validation_cases/lidDrivenCavity/dynamicCode/platforms/linux64IccDPInt32Opt/lib/libcodeStream_90d0e9b1889699dc6b29b4388680d12b22b12b7f.so"
Creating new library in "dynamicCode/_90d0e9b1889699dc6b29b4388680d12b22b12b7f/platforms/linux64IccDPInt32Opt/lib/libcodeStream_90d0e9b1889699dc6b29b4388680d12b22b12b7f.so"
Invoking "wmake -s libso /home/taher/OpenFOAM/taher-dev/run/validation_cases/lidDrivenCavity/dynamicCode/_90d0e9b1889699dc6b29b4388680d12b22b12b7f"
wmake libso /home/taher/OpenFOAM/taher-dev/run/validation_cases/lidDrivenCavity/dynamicCode/_90d0e9b1889699dc6b29b4388680d12b22b12b7f
    ln: ./lnInclude
    wmkdep: codeStreamTemplate.C
    Ctoo: codeStreamTemplate.C
    ld: /home/taher/OpenFOAM/taher-dev/run/validation_cases/lidDrivenCavity/dynamicCode/_90d0e9b1889699dc6b29b4388680d12b22b12b7f/../platforms/linux64IccDPInt32Opt/lib/libcodeStream_90d0e9b1889699dc6b29b4388680d12b22b12b7f.so
Reading field p

Reading field U

Reading/calculating face flux field phi


Starting time loop

Reading set description:
    vertical
    horizontal

streamLine streamlines:
    automatic track length specified through number of sub cycles : 5

Time = 0.001

Courant Number mean: 0 max: 0
DILUPBiCGStab:  Solving for Ux, Initial residual = 1, Final residual = 2.74734e-07, No Iterations 2
DILUPBiCGStab:  Solving for Uy, Initial residual = 0, Final residual = 0, No Iterations 0
DICPCG:  Solving for p, Initial residual = 1, Final residual = 0.00539892, No Iterations 38
time step continuity errors : sum local = 5.57884e-07, global = 3.1499e-21, cumulative = 3.1499e-21
DICPCG:  Solving for p, Initial residual = 0.129912, Final residual = 4.89541e-07, No Iterations 50
time step continuity errors : sum local = 1.06575e-10, global = -2.05141e-22, cumulative = 2.94476e-21
ExecutionTime = 0.21 s  ClockTime = 2 s

Time = 0.002

Courant Number mean: 0.00334415 max: 0.0400207
DILUPBiCGStab:  Solving for Ux, Initial residual = 0.293624, Final residual = 1.35222e-07, No Iterations 2
DILUPBiCGStab:  Solving for Uy, Initial residual = 0.324736, Final residual = 4.38098e-08, No Iterations 2
DICPCG:  Solving for p, Initial residual = 0.0876899, Final residual = 0.000446383, No Iterations 37
time step continuity errors : sum local = 9.53423e-08, global = -2.80174e-20, cumulative = -2.50727e-20
DICPCG:  Solving for p, Initial residual = 0.0156739, Final residual = 9.02836e-07, No Iterations 44
time step continuity errors : sum local = 2.01213e-10, global = 1.21844e-20, cumulative = -1.28883e-20
ExecutionTime = 0.21 s  ClockTime = 2 s

Time = 0.003

Courant Number mean: 0.0061541 max: 0.0720637
DILUPBiCGStab:  Solving for Ux, Initial residual = 0.163221, Final residual = 7.32816e-08, No Iterations 2
DILUPBiCGStab:  Solving for Uy, Initial residual = 0.182475, Final residual = 2.22205e-08, No Iterations 2
DICPCG:  Solving for p, Initial residual = 0.0687435, Final residual = 0.0003172, No Iterations 37
time step continuity errors : sum local = 7.43327e-08, global = 3.88709e-20, cumulative = 2.59826e-20
DICPCG:  Solving for p, Initial residual = 0.0122789, Final residual = 5.44359e-07, No Iterations 44
time step continuity errors : sum local = 1.33048e-10, global = -3.64547e-20, cumulative = -1.04721e-20
ExecutionTime = 0.22 s  ClockTime = 2 s

Time = 0.004

Courant Number mean: 0.00857134 max: 0.0978523
DILUPBiCGStab:  Solving for Ux, Initial residual = 0.109294, Final residual = 4.68519e-08, No Iterations 2
DILUPBiCGStab:  Solving for Uy, Initial residual = 0.122187, Final residual = 1.44008e-08, No Iterations 2
DICPCG:  Solving for p, Initial residual = 0.0556864, Final residual = 0.000537386, No Iterations 36
time step continuity errors : sum local = 1.36705e-07, global = 3.48276e-20, cumulative = 2.43555e-20
DICPCG:  Solving for p, Initial residual = 0.0102962, Final residual = 9.59458e-07, No Iterations 44
time step continuity errors : sum local = 2.5185e-10, global = -4.56273e-21, cumulative = 1.97928e-20
ExecutionTime = 0.22 s  ClockTime = 2 s

Time = 0.005

Courant Number mean: 0.010675 max: 0.118746
DILUPBiCGStab:  Solving for Ux, Initial residual = 0.0794476, Final residual = 3.22474e-08, No Iterations 2
DILUPBiCGStab:  Solving for Uy, Initial residual = 0.089409, Final residual = 1.0553e-08, No Iterations 2
DICPCG:  Solving for p, Initial residual = 0.0463475, Final residual = 0.00042616, No Iterations 36
time step continuity errors : sum local = 1.15933e-07, global = -7.05535e-20, cumulative = -5.07608e-20
DICPCG:  Solving for p, Initial residual = 0.00863542, Final residual = 7.45737e-07, No Iterations 45
time step continuity errors : sum local = 2.0896e-10, global = -9.78654e-20, cumulative = -1.48626e-19
ExecutionTime = 0.23 s  ClockTime = 2 s

Time = 0.006

Courant Number mean: 0.0125235 max: 0.135793
DILUPBiCGStab:  Solving for Ux, Initial residual = 0.0608009, Final residual = 2.33956e-08, No Iterations 2
DILUPBiCGStab:  Solving for Uy, Initial residual = 0.0691398, Final residual = 8.14345e-09, No Iterations 2
DICPCG:  Solving for p, Initial residual = 0.0399092, Final residual = 0.00034435, No Iterations 36
time step continuity errors : sum local = 9.91358e-08, global = 1.72732e-20, cumulative = -1.31353e-19
DICPCG:  Solving for p, Initial residual = 0.00734552, Final residual = 6.27437e-07, No Iterations 45
time step continuity errors : sum local = 1.85184e-10, global = 4.92834e-21, cumulative = -1.26425e-19
ExecutionTime = 0.23 s  ClockTime = 2 s

Time = 0.007

Courant Number mean: 0.0141558 max: 0.149813
DILUPBiCGStab:  Solving for Ux, Initial residual = 0.0486931, Final residual = 1.75076e-08, No Iterations 2
DILUPBiCGStab:  Solving for Uy, Initial residual = 0.0555666, Final residual = 6.58081e-09, No Iterations 2
DICPCG:  Solving for p, Initial residual = 0.0345636, Final residual = 0.000283309, No Iterations 36
time step continuity errors : sum local = 8.55922e-08, global = 6.40239e-20, cumulative = -6.24008e-20
DICPCG:  Solving for p, Initial residual = 0.00632892, Final residual = 8.85506e-07, No Iterations 44
time step continuity errors : sum local = 2.71962e-10, global = 2.73433e-20, cumulative = -3.50575e-20
ExecutionTime = 0.23 s  ClockTime = 2 s

Time = 0.008

Courant Number mean: 0.0156142 max: 0.161432
DILUPBiCGStab:  Solving for Ux, Initial residual = 0.040314, Final residual = 1.33433e-08, No Iterations 2
DILUPBiCGStab:  Solving for Uy, Initial residual = 0.0459671, Final residual = 9.61012e-07, No Iterations 1
DICPCG:  Solving for p, Initial residual = 0.0300474, Final residual = 0.000235204, No Iterations 36
time step continuity errors : sum local = 7.40286e-08, global = -1.42971e-20, cumulative = -4.93546e-20
DICPCG:  Solving for p, Initial residual = 0.00551341, Final residual = 9.0989e-07, No Iterations 43
time step continuity errors : sum local = 2.90912e-10, global = 2.37335e-20, cumulative = -2.56211e-20
ExecutionTime = 0.23 s  ClockTime = 2 s

Time = 0.009

Courant Number mean: 0.0169236 max: 0.171134
DILUPBiCGStab:  Solving for Ux, Initial residual = 0.0341637, Final residual = 1.02494e-08, No Iterations 2
DILUPBiCGStab:  Solving for Uy, Initial residual = 0.0389043, Final residual = 7.85672e-07, No Iterations 1
DICPCG:  Solving for p, Initial residual = 0.0261912, Final residual = 0.000196666, No Iterations 36
time step continuity errors : sum local = 6.41148e-08, global = -1.18532e-19, cumulative = -1.44153e-19
DICPCG:  Solving for p, Initial residual = 0.00486178, Final residual = 7.64101e-07, No Iterations 43
time step continuity errors : sum local = 2.52734e-10, global = -2.25159e-21, cumulative = -1.46404e-19
ExecutionTime = 0.23 s  ClockTime = 2 s

Time = 0.01

Courant Number mean: 0.0181026 max: 0.1793
DILUPBiCGStab:  Solving for Ux, Initial residual = 0.029479, Final residual = 7.87718e-09, No Iterations 2
DILUPBiCGStab:  Solving for Uy, Initial residual = 0.0335372, Final residual = 6.55475e-07, No Iterations 1
DICPCG:  Solving for p, Initial residual = 0.0228922, Final residual = 0.000165124, No Iterations 36
time step continuity errors : sum local = 5.55153e-08, global = 7.16336e-21, cumulative = -1.39241e-19
DICPCG:  Solving for p, Initial residual = 0.00431094, Final residual = 6.31991e-07, No Iterations 43
time step continuity errors : sum local = 2.15388e-10, global = 8.1196e-20, cumulative = -5.80449e-20
ExecutionTime = 0.24 s  ClockTime = 2 s

Time = 0.011

Courant Number mean: 0.0191703 max: 0.186229
DILUPBiCGStab:  Solving for Ux, Initial residual = 0.0258102, Final residual = 9.17069e-07, No Iterations 1
DILUPBiCGStab:  Solving for Uy, Initial residual = 0.0293552, Final residual = 5.57666e-07, No Iterations 1
DICPCG:  Solving for p, Initial residual = 0.0200726, Final residual = 0.000139173, No Iterations 36
time step continuity errors : sum local = 4.8072e-08, global = -1.05664e-20, cumulative = -6.86113e-20
DICPCG:  Solving for p, Initial residual = 0.00385211, Final residual = 9.23933e-07, No Iterations 42
time step continuity errors : sum local = 3.23446e-10, global = 5.32175e-20, cumulative = -1.53939e-20
ExecutionTime = 0.24 s  ClockTime = 2 s

Time = 0.012

Courant Number mean: 0.0201665 max: 0.192156
DILUPBiCGStab:  Solving for Ux, Initial residual = 0.0228783, Final residual = 7.29293e-07, No Iterations 1
DILUPBiCGStab:  Solving for Uy, Initial residual = 0.0260264, Final residual = 4.81288e-07, No Iterations 1
DICPCG:  Solving for p, Initial residual = 0.0177966, Final residual = 0.000118319, No Iterations 36
time step continuity errors : sum local = 4.18454e-08, global = -1.86662e-20, cumulative = -3.406e-20
DICPCG:  Solving for p, Initial residual = 0.00349041, Final residual = 7.3118e-07, No Iterations 42
time step continuity errors : sum local = 2.61827e-10, global = -3.22088e-20, cumulative = -6.62688e-20
ExecutionTime = 0.24 s  ClockTime = 2 s

Time = 0.013

Courant Number mean: 0.0211084 max: 0.197266
DILUPBiCGStab:  Solving for Ux, Initial residual = 0.020461, Final residual = 5.82434e-07, No Iterations 1
DILUPBiCGStab:  Solving for Uy, Initial residual = 0.023329, Final residual = 4.20666e-07, No Iterations 1
DICPCG:  Solving for p, Initial residual = 0.0158923, Final residual = 0.000101588, No Iterations 36
time step continuity errors : sum local = 3.66847e-08, global = 7.71908e-20, cumulative = 1.09221e-20
DICPCG:  Solving for p, Initial residual = 0.00318563, Final residual = 5.79342e-07, No Iterations 42
time step continuity errors : sum local = 2.11552e-10, global = -7.47738e-20, cumulative = -6.38518e-20
ExecutionTime = 0.24 s  ClockTime = 2 s

Time = 0.014

Courant Number mean: 0.0219936 max: 0.201706
DILUPBiCGStab:  Solving for Ux, Initial residual = 0.0185133, Final residual = 4.69098e-07, No Iterations 1
DILUPBiCGStab:  Solving for Uy, Initial residual = 0.0211093, Final residual = 3.731e-07, No Iterations 1
DICPCG:  Solving for p, Initial residual = 0.0142268, Final residual = 8.8266e-05, No Iterations 36
time step continuity errors : sum local = 3.2508e-08, global = -1.10965e-19, cumulative = -1.74816e-19
DICPCG:  Solving for p, Initial residual = 0.00293017, Final residual = 4.69143e-07, No Iterations 42
time step continuity errors : sum local = 1.74538e-10, global = -3.96319e-20, cumulative = -2.14448e-19
ExecutionTime = 0.24 s  ClockTime = 2 s

Time = 0.015

Courant Number mean: 0.022829 max: 0.205606
DILUPBiCGStab:  Solving for Ux, Initial residual = 0.0168838, Final residual = 3.80951e-07, No Iterations 1
DILUPBiCGStab:  Solving for Uy, Initial residual = 0.0192551, Final residual = 3.35278e-07, No Iterations 1
DICPCG:  Solving for p, Initial residual = 0.01294, Final residual = 7.78827e-05, No Iterations 36
time step continuity errors : sum local = 2.92229e-08, global = -7.19018e-20, cumulative = -2.8635e-19
DICPCG:  Solving for p, Initial residual = 0.00271227, Final residual = 9.29729e-07, No Iterations 41
time step continuity errors : sum local = 3.50416e-10, global = -2.87015e-20, cumulative = -3.15052e-19
ExecutionTime = 0.24 s  ClockTime = 2 s

Time = 0.016

Courant Number mean: 0.0236182 max: 0.209049
DILUPBiCGStab:  Solving for Ux, Initial residual = 0.0155013, Final residual = 3.12783e-07, No Iterations 1
DILUPBiCGStab:  Solving for Uy, Initial residual = 0.0176892, Final residual = 3.04528e-07, No Iterations 1
DICPCG:  Solving for p, Initial residual = 0.0119231, Final residual = 6.98516e-05, No Iterations 36
time step continuity errors : sum local = 2.66585e-08, global = -7.8248e-20, cumulative = -3.933e-19
DICPCG:  Solving for p, Initial residual = 0.0025212, Final residual = 8.65689e-07, No Iterations 41
time step continuity errors : sum local = 3.30951e-10, global = -3.69452e-20, cumulative = -4.30245e-19
ExecutionTime = 0.25 s  ClockTime = 2 s

Time = 0.017

Courant Number mean: 0.0243633 max: 0.212108
DILUPBiCGStab:  Solving for Ux, Initial residual = 0.0143214, Final residual = 2.61472e-07, No Iterations 1
DILUPBiCGStab:  Solving for Uy, Initial residual = 0.016351, Final residual = 2.78983e-07, No Iterations 1
DICPCG:  Solving for p, Initial residual = 0.0110915, Final residual = 6.32279e-05, No Iterations 36
time step continuity errors : sum local = 2.45014e-08, global = 6.04487e-20, cumulative = -3.69796e-19
DICPCG:  Solving for p, Initial residual = 0.00235081, Final residual = 8.18512e-07, No Iterations 41
time step continuity errors : sum local = 3.16913e-10, global = -7.9856e-20, cumulative = -4.49652e-19
ExecutionTime = 0.25 s  ClockTime = 2 s

Time = 0.018

Courant Number mean: 0.0250714 max: 0.214843
DILUPBiCGStab:  Solving for Ux, Initial residual = 0.0132936, Final residual = 2.2259e-07, No Iterations 1
DILUPBiCGStab:  Solving for Uy, Initial residual = 0.0151951, Final residual = 2.57652e-07, No Iterations 1
DICPCG:  Solving for p, Initial residual = 0.0103301, Final residual = 5.75464e-05, No Iterations 36
time step continuity errors : sum local = 2.26066e-08, global = 5.06384e-20, cumulative = -3.99014e-19
DICPCG:  Solving for p, Initial residual = 0.00220528, Final residual = 7.8171e-07, No Iterations 41
time step continuity errors : sum local = 3.06643e-10, global = 2.83094e-20, cumulative = -3.70704e-19
ExecutionTime = 0.25 s  ClockTime = 2 s

Time = 0.019

Courant Number mean: 0.0257441 max: 0.217303
DILUPBiCGStab:  Solving for Ux, Initial residual = 0.0123899, Final residual = 1.95963e-07, No Iterations 1
DILUPBiCGStab:  Solving for Uy, Initial residual = 0.0141904, Final residual = 2.39623e-07, No Iterations 1
DICPCG:  Solving for p, Initial residual = 0.00962586, Final residual = 5.26456e-05, No Iterations 36
time step continuity errors : sum local = 2.09396e-08, global = 4.01513e-21, cumulative = -3.66689e-19
DICPCG:  Solving for p, Initial residual = 0.00208296, Final residual = 7.54089e-07, No Iterations 41
time step continuity errors : sum local = 2.99481e-10, global = 9.03116e-21, cumulative = -3.57658e-19
ExecutionTime = 0.25 s  ClockTime = 2 s

Time = 0.02

Courant Number mean: 0.0263817 max: 0.21953
DILUPBiCGStab:  Solving for Ux, Initial residual = 0.0115919, Final residual = 1.77682e-07, No Iterations 1
DILUPBiCGStab:  Solving for Uy, Initial residual = 0.0133095, Final residual = 2.24256e-07, No Iterations 1
DICPCG:  Solving for p, Initial residual = 0.00901497, Final residual = 4.80246e-05, No Iterations 36
time step continuity errors : sum local = 1.93184e-08, global = 1.04317e-19, cumulative = -2.53341e-19
DICPCG:  Solving for p, Initial residual = 0.0019716, Final residual = 7.31972e-07, No Iterations 41
time step continuity errors : sum local = 2.93977e-10, global = -4.20688e-20, cumulative = -2.95409e-19
ExecutionTime = 0.25 s  ClockTime = 2 s

streamLine streamlines write:
    seeded 24 particles
    Tracks:24
    Total samples:8633
Time = 0.021

Courant Number mean: 0.0269924 max: 0.221555
DILUPBiCGStab:  Solving for Ux, Initial residual = 0.0108791, Final residual = 1.63197e-07, No Iterations 1
DILUPBiCGStab:  Solving for Uy, Initial residual = 0.0125304, Final residual = 2.10986e-07, No Iterations 1
DICPCG:  Solving for p, Initial residual = 0.0085041, Final residual = 4.36726e-05, No Iterations 36
time step continuity errors : sum local = 1.77466e-08, global = 1.12708e-19, cumulative = -1.82701e-19
DICPCG:  Solving for p, Initial residual = 0.00187591, Final residual = 7.14208e-07, No Iterations 41
time step continuity errors : sum local = 2.89765e-10, global = -1.7427e-20, cumulative = -2.00128e-19
ExecutionTime = 0.28 s  ClockTime = 2 s

Time = 0.022

Courant Number mean: 0.0275768 max: 0.223407
DILUPBiCGStab:  Solving for Ux, Initial residual = 0.0102394, Final residual = 1.51534e-07, No Iterations 1
DILUPBiCGStab:  Solving for Uy, Initial residual = 0.0118367, Final residual = 1.99436e-07, No Iterations 1
DICPCG:  Solving for p, Initial residual = 0.00804215, Final residual = 3.96904e-05, No Iterations 36
time step continuity errors : sum local = 1.62734e-08, global = -1.09949e-20, cumulative = -2.11123e-19
DICPCG:  Solving for p, Initial residual = 0.00178641, Final residual = 6.9833e-07, No Iterations 41
time step continuity errors : sum local = 2.85958e-10, global = 4.55032e-20, cumulative = -1.6562e-19
ExecutionTime = 0.29 s  ClockTime = 2 s

Time = 0.023

Courant Number mean: 0.0281343 max: 0.225108
DILUPBiCGStab:  Solving for Ux, Initial residual = 0.00967565, Final residual = 1.42286e-07, No Iterations 1
DILUPBiCGStab:  Solving for Uy, Initial residual = 0.0112155, Final residual = 1.89616e-07, No Iterations 1
DICPCG:  Solving for p, Initial residual = 0.00762738, Final residual = 7.59609e-05, No Iterations 35
time step continuity errors : sum local = 3.119e-08, global = -3.67929e-21, cumulative = -1.69299e-19
DICPCG:  Solving for p, Initial residual = 0.00171723, Final residual = 7.03326e-07, No Iterations 41
time step continuity errors : sum local = 2.90474e-10, global = -7.86516e-20, cumulative = -2.47951e-19
ExecutionTime = 0.29 s  ClockTime = 2 s

Time = 0.024

Courant Number mean: 0.0286671 max: 0.226681
DILUPBiCGStab:  Solving for Ux, Initial residual = 0.00917682, Final residual = 1.34195e-07, No Iterations 1
DILUPBiCGStab:  Solving for Uy, Initial residual = 0.0106559, Final residual = 1.80875e-07, No Iterations 1
DICPCG:  Solving for p, Initial residual = 0.00723766, Final residual = 6.68833e-05, No Iterations 35
time step continuity errors : sum local = 2.76608e-08, global = -1.2456e-19, cumulative = -3.72511e-19
DICPCG:  Solving for p, Initial residual = 0.00164495, Final residual = 6.97082e-07, No Iterations 41
time step continuity errors : sum local = 2.90201e-10, global = -9.80325e-20, cumulative = -4.70543e-19
ExecutionTime = 0.29 s  ClockTime = 2 s

Time = 0.025

Courant Number mean: 0.0291775 max: 0.228147
DILUPBiCGStab:  Solving for Ux, Initial residual = 0.00872732, Final residual = 1.26449e-07, No Iterations 1
DILUPBiCGStab:  Solving for Uy, Initial residual = 0.010149, Final residual = 1.72932e-07, No Iterations 1
DICPCG:  Solving for p, Initial residual = 0.00688297, Final residual = 5.87118e-05, No Iterations 35
time step continuity errors : sum local = 2.44415e-08, global = -1.13589e-20, cumulative = -4.81902e-19
DICPCG:  Solving for p, Initial residual = 0.00158092, Final residual = 6.8388e-07, No Iterations 41
time step continuity errors : sum local = 2.86818e-10, global = 2.29692e-20, cumulative = -4.58933e-19
ExecutionTime = 0.29 s  ClockTime = 2 s

Time = 0.026

Courant Number mean: 0.0296702 max: 0.22951
DILUPBiCGStab:  Solving for Ux, Initial residual = 0.00832048, Final residual = 1.18817e-07, No Iterations 1
DILUPBiCGStab:  Solving for Uy, Initial residual = 0.00968893, Final residual = 1.65642e-07, No Iterations 1
DICPCG:  Solving for p, Initial residual = 0.0065908, Final residual = 5.12708e-05, No Iterations 35
time step continuity errors : sum local = 2.14786e-08, global = -1.39976e-19, cumulative = -5.98909e-19
DICPCG:  Solving for p, Initial residual = 0.00152009, Final residual = 6.75334e-07, No Iterations 41
time step continuity errors : sum local = 2.85142e-10, global = 4.0962e-20, cumulative = -5.57947e-19
ExecutionTime = 0.29 s  ClockTime = 2 s

Time = 0.027

Courant Number mean: 0.030143 max: 0.230781
DILUPBiCGStab:  Solving for Ux, Initial residual = 0.00794801, Final residual = 1.11652e-07, No Iterations 1
DILUPBiCGStab:  Solving for Uy, Initial residual = 0.00926811, Final residual = 1.58842e-07, No Iterations 1
DICPCG:  Solving for p, Initial residual = 0.00633035, Final residual = 4.50503e-05, No Iterations 35
time step continuity errors : sum local = 1.9008e-08, global = -8.59159e-20, cumulative = -6.43863e-19
DICPCG:  Solving for p, Initial residual = 0.00146237, Final residual = 6.61102e-07, No Iterations 41
time step continuity errors : sum local = 2.80811e-10, global = 6.43844e-20, cumulative = -5.79478e-19
ExecutionTime = 0.29 s  ClockTime = 2 s

Time = 0.028

Courant Number mean: 0.0305993 max: 0.231972
DILUPBiCGStab:  Solving for Ux, Initial residual = 0.00760475, Final residual = 1.05001e-07, No Iterations 1
DILUPBiCGStab:  Solving for Uy, Initial residual = 0.008883, Final residual = 1.52541e-07, No Iterations 1
DICPCG:  Solving for p, Initial residual = 0.00608009, Final residual = 5.96555e-05, No Iterations 34
time step continuity errors : sum local = 2.54222e-08, global = -1.6358e-19, cumulative = -7.43058e-19
DICPCG:  Solving for p, Initial residual = 0.00141848, Final residual = 9.82816e-07, No Iterations 40
time step continuity errors : sum local = 4.18425e-10, global = -2.33341e-19, cumulative = -9.76399e-19
ExecutionTime = 0.3 s  ClockTime = 2 s

Time = 0.029

Courant Number mean: 0.0310384 max: 0.233088
DILUPBiCGStab:  Solving for Ux, Initial residual = 0.00728943, Final residual = 9.88497e-08, No Iterations 1
DILUPBiCGStab:  Solving for Uy, Initial residual = 0.00852918, Final residual = 1.46773e-07, No Iterations 1
DICPCG:  Solving for p, Initial residual = 0.00584616, Final residual = 5.57511e-05, No Iterations 34
time step continuity errors : sum local = 2.39021e-08, global = -9.39694e-20, cumulative = -1.07037e-18
DICPCG:  Solving for p, Initial residual = 0.00136809, Final residual = 9.6046e-07, No Iterations 40
time step continuity errors : sum local = 4.10914e-10, global = 1.963e-19, cumulative = -8.74069e-19
ExecutionTime = 0.3 s  ClockTime = 2 s

Time = 0.03

Courant Number mean: 0.0314643 max: 0.234139
DILUPBiCGStab:  Solving for Ux, Initial residual = 0.00699658, Final residual = 9.31856e-08, No Iterations 1
DILUPBiCGStab:  Solving for Uy, Initial residual = 0.00820189, Final residual = 1.41466e-07, No Iterations 1
DICPCG:  Solving for p, Initial residual = 0.00562838, Final residual = 5.26074e-05, No Iterations 34
time step continuity errors : sum local = 2.268e-08, global = -5.62399e-21, cumulative = -8.79693e-19
DICPCG:  Solving for p, Initial residual = 0.00132106, Final residual = 8.47034e-07, No Iterations 40
time step continuity errors : sum local = 3.63985e-10, global = 4.42542e-22, cumulative = -8.7925e-19
ExecutionTime = 0.3 s  ClockTime = 3 s

Time = 0.031

Courant Number mean: 0.0318855 max: 0.23513
DILUPBiCGStab:  Solving for Ux, Initial residual = 0.00672589, Final residual = 8.79357e-08, No Iterations 1
DILUPBiCGStab:  Solving for Uy, Initial residual = 0.00789801, Final residual = 1.36457e-07, No Iterations 1
DICPCG:  Solving for p, Initial residual = 0.00542393, Final residual = 5.00556e-05, No Iterations 34
time step continuity errors : sum local = 2.16914e-08, global = 2.65351e-20, cumulative = -8.52715e-19
DICPCG:  Solving for p, Initial residual = 0.00128092, Final residual = 7.77957e-07, No Iterations 40
time step continuity errors : sum local = 3.35625e-10, global = 2.04595e-20, cumulative = -8.32255e-19
ExecutionTime = 0.3 s  ClockTime = 3 s

Time = 0.032

Courant Number mean: 0.0322986 max: 0.236066
DILUPBiCGStab:  Solving for Ux, Initial residual = 0.00647163, Final residual = 8.30853e-08, No Iterations 1
DILUPBiCGStab:  Solving for Uy, Initial residual = 0.0076151, Final residual = 1.31101e-07, No Iterations 1
DICPCG:  Solving for p, Initial residual = 0.00524891, Final residual = 4.80742e-05, No Iterations 34
time step continuity errors : sum local = 2.09322e-08, global = -2.04264e-20, cumulative = -8.52682e-19
DICPCG:  Solving for p, Initial residual = 0.0012429, Final residual = 6.91724e-07, No Iterations 40
time step continuity errors : sum local = 2.99588e-10, global = -1.59929e-19, cumulative = -1.01261e-18
ExecutionTime = 0.3 s  ClockTime = 3 s

Time = 0.033

Courant Number mean: 0.0327023 max: 0.236953
DILUPBiCGStab:  Solving for Ux, Initial residual = 0.00623027, Final residual = 7.85013e-08, No Iterations 1
DILUPBiCGStab:  Solving for Uy, Initial residual = 0.00735174, Final residual = 1.26295e-07, No Iterations 1
DICPCG:  Solving for p, Initial residual = 0.00508844, Final residual = 4.65535e-05, No Iterations 34
time step continuity errors : sum local = 2.03599e-08, global = -4.98641e-20, cumulative = -1.06247e-18
DICPCG:  Solving for p, Initial residual = 0.00120758, Final residual = 6.28799e-07, No Iterations 40
time step continuity errors : sum local = 2.73413e-10, global = -5.2076e-20, cumulative = -1.11455e-18
ExecutionTime = 0.3 s  ClockTime = 3 s

Time = 0.034

Courant Number mean: 0.0330962 max: 0.237795
DILUPBiCGStab:  Solving for Ux, Initial residual = 0.00600358, Final residual = 7.42738e-08, No Iterations 1
DILUPBiCGStab:  Solving for Uy, Initial residual = 0.0071067, Final residual = 1.21892e-07, No Iterations 1
DICPCG:  Solving for p, Initial residual = 0.00494179, Final residual = 4.53881e-05, No Iterations 34
time step continuity errors : sum local = 1.99318e-08, global = 1.11628e-19, cumulative = -1.00292e-18
DICPCG:  Solving for p, Initial residual = 0.00117606, Final residual = 5.9587e-07, No Iterations 40
time step continuity errors : sum local = 2.60224e-10, global = -1.64865e-20, cumulative = -1.01941e-18
ExecutionTime = 0.31 s  ClockTime = 3 s

Time = 0.035

Courant Number mean: 0.0334805 max: 0.238595
DILUPBiCGStab:  Solving for Ux, Initial residual = 0.00578876, Final residual = 7.03644e-08, No Iterations 1
DILUPBiCGStab:  Solving for Uy, Initial residual = 0.00687789, Final residual = 1.17844e-07, No Iterations 1
DICPCG:  Solving for p, Initial residual = 0.00480372, Final residual = 4.45732e-05, No Iterations 34
time step continuity errors : sum local = 1.96481e-08, global = 4.90667e-20, cumulative = -9.70342e-19
DICPCG:  Solving for p, Initial residual = 0.00114662, Final residual = 5.9635e-07, No Iterations 40
time step continuity errors : sum local = 2.61624e-10, global = -2.66997e-20, cumulative = -9.97042e-19
ExecutionTime = 0.31 s  ClockTime = 3 s

Time = 0.036

Courant Number mean: 0.033858 max: 0.239357
DILUPBiCGStab:  Solving for Ux, Initial residual = 0.00558586, Final residual = 6.66512e-08, No Iterations 1
DILUPBiCGStab:  Solving for Uy, Initial residual = 0.00666282, Final residual = 1.14138e-07, No Iterations 1
DICPCG:  Solving for p, Initial residual = 0.00467215, Final residual = 4.40202e-05, No Iterations 34
time step continuity errors : sum local = 1.94726e-08, global = 6.43547e-21, cumulative = -9.90607e-19
DICPCG:  Solving for p, Initial residual = 0.00111927, Final residual = 6.23454e-07, No Iterations 40
time step continuity errors : sum local = 2.74715e-10, global = -1.64628e-19, cumulative = -1.15523e-18
ExecutionTime = 0.31 s  ClockTime = 3 s

Time = 0.037

Courant Number mean: 0.0342269 max: 0.240085
DILUPBiCGStab:  Solving for Ux, Initial residual = 0.00540032, Final residual = 6.32271e-08, No Iterations 1
DILUPBiCGStab:  Solving for Uy, Initial residual = 0.00646028, Final residual = 1.10601e-07, No Iterations 1
DICPCG:  Solving for p, Initial residual = 0.00454444, Final residual = 4.3705e-05, No Iterations 34
time step continuity errors : sum local = 1.93968e-08, global = -4.07386e-21, cumulative = -1.15931e-18
DICPCG:  Solving for p, Initial residual = 0.00109187, Final residual = 6.66591e-07, No Iterations 40
time step continuity errors : sum local = 2.94897e-10, global = -4.4906e-20, cumulative = -1.20421e-18
ExecutionTime = 0.31 s  ClockTime = 3 s

Time = 0.038

Courant Number mean: 0.0345852 max: 0.240789
DILUPBiCGStab:  Solving for Ux, Initial residual = 0.00522686, Final residual = 6.01093e-08, No Iterations 1
DILUPBiCGStab:  Solving for Uy, Initial residual = 0.00626904, Final residual = 1.07213e-07, No Iterations 1
DICPCG:  Solving for p, Initial residual = 0.00442182, Final residual = 4.36024e-05, No Iterations 34
time step continuity errors : sum local = 1.94106e-08, global = 4.1101e-20, cumulative = -1.16311e-18
DICPCG:  Solving for p, Initial residual = 0.00106571, Final residual = 7.14269e-07, No Iterations 40
time step continuity errors : sum local = 3.17118e-10, global = -3.71421e-20, cumulative = -1.20026e-18
ExecutionTime = 0.31 s  ClockTime = 3 s

Time = 0.039

Courant Number mean: 0.0349354 max: 0.241463
DILUPBiCGStab:  Solving for Ux, Initial residual = 0.00506345, Final residual = 5.72676e-08, No Iterations 1
DILUPBiCGStab:  Solving for Uy, Initial residual = 0.00608878, Final residual = 1.0397e-07, No Iterations 1
DICPCG:  Solving for p, Initial residual = 0.004302, Final residual = 2.46354e-05, No Iterations 35
time step continuity errors : sum local = 1.10036e-08, global = 1.01783e-19, cumulative = -1.09847e-18
DICPCG:  Solving for p, Initial residual = 0.00103715, Final residual = 7.35464e-07, No Iterations 40
time step continuity errors : sum local = 3.27516e-10, global = -1.06881e-19, cumulative = -1.20535e-18
ExecutionTime = 0.31 s  ClockTime = 3 s

Time = 0.04

Courant Number mean: 0.035279 max: 0.242108
DILUPBiCGStab:  Solving for Ux, Initial residual = 0.00490888, Final residual = 5.4716e-08, No Iterations 1
DILUPBiCGStab:  Solving for Uy, Initial residual = 0.00591827, Final residual = 1.00871e-07, No Iterations 1
DICPCG:  Solving for p, Initial residual = 0.00419796, Final residual = 2.47581e-05, No Iterations 35
time step continuity errors : sum local = 1.10896e-08, global = -1.00105e-20, cumulative = -1.21536e-18
DICPCG:  Solving for p, Initial residual = 0.0010132, Final residual = 7.55906e-07, No Iterations 40
time step continuity errors : sum local = 3.376e-10, global = -6.68577e-20, cumulative = -1.28222e-18
ExecutionTime = 0.31 s  ClockTime = 3 s

streamLine streamlines write:
    seeded 24 particles
    Tracks:24
    Total samples:10176
Time = 0.041

Courant Number mean: 0.0356136 max: 0.242726
DILUPBiCGStab:  Solving for Ux, Initial residual = 0.00476369, Final residual = 5.23832e-08, No Iterations 1
DILUPBiCGStab:  Solving for Uy, Initial residual = 0.00575697, Final residual = 9.79489e-08, No Iterations 1
DICPCG:  Solving for p, Initial residual = 0.00409849, Final residual = 2.49018e-05, No Iterations 35
time step continuity errors : sum local = 1.11839e-08, global = 5.02463e-20, cumulative = -1.23198e-18
DICPCG:  Solving for p, Initial residual = 0.000990951, Final residual = 7.8799e-07, No Iterations 40
time step continuity errors : sum local = 3.52919e-10, global = 5.69754e-20, cumulative = -1.175e-18
ExecutionTime = 0.35 s  ClockTime = 3 s

Time = 0.042

Courant Number mean: 0.0359398 max: 0.24332
DILUPBiCGStab:  Solving for Ux, Initial residual = 0.00462687, Final residual = 5.02494e-08, No Iterations 1
DILUPBiCGStab:  Solving for Uy, Initial residual = 0.005604, Final residual = 9.52094e-08, No Iterations 1
DICPCG:  Solving for p, Initial residual = 0.00400296, Final residual = 2.50421e-05, No Iterations 35
time step continuity errors : sum local = 1.12757e-08, global = -1.28046e-19, cumulative = -1.30305e-18
DICPCG:  Solving for p, Initial residual = 0.000970574, Final residual = 8.10759e-07, No Iterations 40
time step continuity errors : sum local = 3.64048e-10, global = 1.04673e-19, cumulative = -1.19837e-18
ExecutionTime = 0.35 s  ClockTime = 3 s

Time = 0.043

Courant Number mean: 0.0362577 max: 0.243891
DILUPBiCGStab:  Solving for Ux, Initial residual = 0.00449818, Final residual = 4.82607e-08, No Iterations 1
DILUPBiCGStab:  Solving for Uy, Initial residual = 0.0054589, Final residual = 9.26002e-08, No Iterations 1
DICPCG:  Solving for p, Initial residual = 0.00390953, Final residual = 2.51596e-05, No Iterations 35
time step continuity errors : sum local = 1.13562e-08, global = -1.17542e-19, cumulative = -1.31591e-18
DICPCG:  Solving for p, Initial residual = 0.000950676, Final residual = 8.27749e-07, No Iterations 40
time step continuity errors : sum local = 3.72569e-10, global = -2.16955e-19, cumulative = -1.53287e-18
ExecutionTime = 0.35 s  ClockTime = 3 s

Time = 0.044

Courant Number mean: 0.0365696 max: 0.24444
DILUPBiCGStab:  Solving for Ux, Initial residual = 0.00437461, Final residual = 4.64073e-08, No Iterations 1
DILUPBiCGStab:  Solving for Uy, Initial residual = 0.00532065, Final residual = 9.00984e-08, No Iterations 1
DICPCG:  Solving for p, Initial residual = 0.00382264, Final residual = 2.52406e-05, No Iterations 35
time step continuity errors : sum local = 1.14192e-08, global = -7.43726e-20, cumulative = -1.60724e-18
DICPCG:  Solving for p, Initial residual = 0.000932154, Final residual = 8.40029e-07, No Iterations 40
time step continuity errors : sum local = 3.78951e-10, global = 9.06499e-20, cumulative = -1.51659e-18
ExecutionTime = 0.35 s  ClockTime = 3 s

Time = 0.045

Courant Number mean: 0.036876 max: 0.244969
DILUPBiCGStab:  Solving for Ux, Initial residual = 0.00425724, Final residual = 4.46719e-08, No Iterations 1
DILUPBiCGStab:  Solving for Uy, Initial residual = 0.005189, Final residual = 8.77772e-08, No Iterations 1
DICPCG:  Solving for p, Initial residual = 0.00374096, Final residual = 2.53551e-05, No Iterations 35
time step continuity errors : sum local = 1.14962e-08, global = 9.91988e-20, cumulative = -1.41739e-18
DICPCG:  Solving for p, Initial residual = 0.000914266, Final residual = 8.47169e-07, No Iterations 40
time step continuity errors : sum local = 3.82995e-10, global = -1.07986e-19, cumulative = -1.52538e-18
ExecutionTime = 0.36 s  ClockTime = 3 s

Time = 0.046

Courant Number mean: 0.037175 max: 0.245478
DILUPBiCGStab:  Solving for Ux, Initial residual = 0.00414468, Final residual = 4.31042e-08, No Iterations 1
DILUPBiCGStab:  Solving for Uy, Initial residual = 0.00506391, Final residual = 8.55466e-08, No Iterations 1
DICPCG:  Solving for p, Initial residual = 0.00366017, Final residual = 2.54278e-05, No Iterations 35
time step continuity errors : sum local = 1.15533e-08, global = 2.03673e-19, cumulative = -1.32171e-18
DICPCG:  Solving for p, Initial residual = 0.000897753, Final residual = 8.49792e-07, No Iterations 40
time step continuity errors : sum local = 3.84969e-10, global = -1.87444e-19, cumulative = -1.50915e-18
ExecutionTime = 0.36 s  ClockTime = 3 s

Time = 0.047

Courant Number mean: 0.037467 max: 0.24597
DILUPBiCGStab:  Solving for Ux, Initial residual = 0.00403686, Final residual = 4.16373e-08, No Iterations 1
DILUPBiCGStab:  Solving for Uy, Initial residual = 0.00494431, Final residual = 8.34083e-08, No Iterations 1
DICPCG:  Solving for p, Initial residual = 0.00358248, Final residual = 2.5458e-05, No Iterations 35
time step continuity errors : sum local = 1.15905e-08, global = -6.08821e-20, cumulative = -1.57003e-18
DICPCG:  Solving for p, Initial residual = 0.000881546, Final residual = 8.48831e-07, No Iterations 40
time step continuity errors : sum local = 3.85295e-10, global = 1.46934e-19, cumulative = -1.4231e-18
ExecutionTime = 0.36 s  ClockTime = 3 s

Time = 0.048

Courant Number mean: 0.0377526 max: 0.246444
DILUPBiCGStab:  Solving for Ux, Initial residual = 0.0039341, Final residual = 4.02898e-08, No Iterations 1
DILUPBiCGStab:  Solving for Uy, Initial residual = 0.00482989, Final residual = 8.13372e-08, No Iterations 1
DICPCG:  Solving for p, Initial residual = 0.00351206, Final residual = 2.54589e-05, No Iterations 35
time step continuity errors : sum local = 1.16134e-08, global = 4.93992e-20, cumulative = -1.3737e-18
DICPCG:  Solving for p, Initial residual = 0.000865578, Final residual = 8.45695e-07, No Iterations 40
time step continuity errors : sum local = 3.84598e-10, global = 1.23789e-19, cumulative = -1.24991e-18
ExecutionTime = 0.36 s  ClockTime = 3 s

Time = 0.049

Courant Number mean: 0.0380318 max: 0.246902
DILUPBiCGStab:  Solving for Ux, Initial residual = 0.00383508, Final residual = 3.90509e-08, No Iterations 1
DILUPBiCGStab:  Solving for Uy, Initial residual = 0.0047204, Final residual = 7.93309e-08, No Iterations 1
DICPCG:  Solving for p, Initial residual = 0.00344413, Final residual = 2.54544e-05, No Iterations 35
time step continuity errors : sum local = 1.16333e-08, global = -2.85338e-19, cumulative = -1.53525e-18
DICPCG:  Solving for p, Initial residual = 0.000850291, Final residual = 8.40379e-07, No Iterations 40
time step continuity errors : sum local = 3.82885e-10, global = 5.94925e-20, cumulative = -1.47576e-18
ExecutionTime = 0.36 s  ClockTime = 3 s

Time = 0.05

Courant Number mean: 0.0383051 max: 0.247346
DILUPBiCGStab:  Solving for Ux, Initial residual = 0.00373948, Final residual = 3.79011e-08, No Iterations 1
DILUPBiCGStab:  Solving for Uy, Initial residual = 0.00461561, Final residual = 7.73856e-08, No Iterations 1
DICPCG:  Solving for p, Initial residual = 0.00337661, Final residual = 2.54463e-05, No Iterations 35
time step continuity errors : sum local = 1.16511e-08, global = -1.34646e-19, cumulative = -1.6104e-18
DICPCG:  Solving for p, Initial residual = 0.000835256, Final residual = 8.33683e-07, No Iterations 40
time step continuity errors : sum local = 3.80552e-10, global = -3.03046e-20, cumulative = -1.64071e-18
ExecutionTime = 0.36 s  ClockTime = 3 s

Time = 0.051

Courant Number mean: 0.0385722 max: 0.247774
DILUPBiCGStab:  Solving for Ux, Initial residual = 0.00364809, Final residual = 3.68237e-08, No Iterations 1
DILUPBiCGStab:  Solving for Uy, Initial residual = 0.00451508, Final residual = 7.54982e-08, No Iterations 1
DICPCG:  Solving for p, Initial residual = 0.00330943, Final residual = 2.54062e-05, No Iterations 35
time step continuity errors : sum local = 1.16548e-08, global = -2.07081e-19, cumulative = -1.84779e-18
DICPCG:  Solving for p, Initial residual = 0.000820355, Final residual = 8.2573e-07, No Iterations 40
time step continuity errors : sum local = 3.77638e-10, global = -1.06667e-19, cumulative = -1.95445e-18
ExecutionTime = 0.37 s  ClockTime = 3 s

Time = 0.052

Courant Number mean: 0.0388343 max: 0.248189
DILUPBiCGStab:  Solving for Ux, Initial residual = 0.00356013, Final residual = 3.5806e-08, No Iterations 1
DILUPBiCGStab:  Solving for Uy, Initial residual = 0.00441848, Final residual = 7.3693e-08, No Iterations 1
DICPCG:  Solving for p, Initial residual = 0.00324474, Final residual = 2.5356e-05, No Iterations 35
time step continuity errors : sum local = 1.16533e-08, global = 6.28082e-20, cumulative = -1.89165e-18
DICPCG:  Solving for p, Initial residual = 0.000806211, Final residual = 8.16321e-07, No Iterations 40
time step continuity errors : sum local = 3.74018e-10, global = 6.34811e-20, cumulative = -1.82817e-18
ExecutionTime = 0.37 s  ClockTime = 3 s

Time = 0.053

Courant Number mean: 0.0390931 max: 0.248591
DILUPBiCGStab:  Solving for Ux, Initial residual = 0.00347522, Final residual = 3.48543e-08, No Iterations 1
DILUPBiCGStab:  Solving for Uy, Initial residual = 0.00432561, Final residual = 7.19428e-08, No Iterations 1
DICPCG:  Solving for p, Initial residual = 0.00318387, Final residual = 2.52897e-05, No Iterations 35
time step continuity errors : sum local = 1.16434e-08, global = -9.31735e-21, cumulative = -1.83748e-18
DICPCG:  Solving for p, Initial residual = 0.00079266, Final residual = 8.06413e-07, No Iterations 40
time step continuity errors : sum local = 3.7013e-10, global = 8.52782e-21, cumulative = -1.82895e-18
ExecutionTime = 0.37 s  ClockTime = 3 s

Time = 0.054

Courant Number mean: 0.0393466 max: 0.24898
DILUPBiCGStab:  Solving for Ux, Initial residual = 0.00339527, Final residual = 3.3956e-08, No Iterations 1
DILUPBiCGStab:  Solving for Uy, Initial residual = 0.00423642, Final residual = 7.02465e-08, No Iterations 1
DICPCG:  Solving for p, Initial residual = 0.00312387, Final residual = 2.52272e-05, No Iterations 35
time step continuity errors : sum local = 1.16349e-08, global = 2.58618e-21, cumulative = -1.82637e-18
DICPCG:  Solving for p, Initial residual = 0.000779082, Final residual = 7.95919e-07, No Iterations 40
time step continuity errors : sum local = 3.65964e-10, global = -1.7614e-20, cumulative = -1.84398e-18
ExecutionTime = 0.37 s  ClockTime = 3 s

Time = 0.055

Courant Number mean: 0.039595 max: 0.249358
DILUPBiCGStab:  Solving for Ux, Initial residual = 0.00332008, Final residual = 3.31047e-08, No Iterations 1
DILUPBiCGStab:  Solving for Uy, Initial residual = 0.00415093, Final residual = 6.85973e-08, No Iterations 1
DICPCG:  Solving for p, Initial residual = 0.00306437, Final residual = 2.51636e-05, No Iterations 35
time step continuity errors : sum local = 1.16259e-08, global = 4.86444e-20, cumulative = -1.79534e-18
DICPCG:  Solving for p, Initial residual = 0.000766012, Final residual = 7.84864e-07, No Iterations 40
time step continuity errors : sum local = 3.61528e-10, global = -7.20334e-20, cumulative = -1.86737e-18
ExecutionTime = 0.37 s  ClockTime = 3 s

Time = 0.056

Courant Number mean: 0.0398384 max: 0.249725
DILUPBiCGStab:  Solving for Ux, Initial residual = 0.00324895, Final residual = 3.22931e-08, No Iterations 1
DILUPBiCGStab:  Solving for Uy, Initial residual = 0.0040688, Final residual = 6.69943e-08, No Iterations 1
DICPCG:  Solving for p, Initial residual = 0.00300554, Final residual = 2.51098e-05, No Iterations 35
time step continuity errors : sum local = 1.16209e-08, global = -7.40136e-20, cumulative = -1.94139e-18
DICPCG:  Solving for p, Initial residual = 0.000753521, Final residual = 7.73393e-07, No Iterations 40
time step continuity errors : sum local = 3.56868e-10, global = 1.05097e-20, cumulative = -1.93088e-18
ExecutionTime = 0.37 s  ClockTime = 3 s

Time = 0.057

Courant Number mean: 0.040077 max: 0.25008
DILUPBiCGStab:  Solving for Ux, Initial residual = 0.00318137, Final residual = 3.15236e-08, No Iterations 1
DILUPBiCGStab:  Solving for Uy, Initial residual = 0.00398952, Final residual = 6.54338e-08, No Iterations 1
DICPCG:  Solving for p, Initial residual = 0.002949, Final residual = 2.50401e-05, No Iterations 35
time step continuity errors : sum local = 1.16079e-08, global = -1.09581e-19, cumulative = -2.04046e-18
DICPCG:  Solving for p, Initial residual = 0.000741969, Final residual = 7.61722e-07, No Iterations 40
time step continuity errors : sum local = 3.52075e-10, global = 9.72729e-20, cumulative = -1.94318e-18
ExecutionTime = 0.38 s  ClockTime = 3 s

Time = 0.058

Courant Number mean: 0.0403108 max: 0.250426
DILUPBiCGStab:  Solving for Ux, Initial residual = 0.00311639, Final residual = 3.08082e-08, No Iterations 1
DILUPBiCGStab:  Solving for Uy, Initial residual = 0.00391296, Final residual = 6.39141e-08, No Iterations 1
DICPCG:  Solving for p, Initial residual = 0.00289372, Final residual = 2.49457e-05, No Iterations 35
time step continuity errors : sum local = 1.15827e-08, global = -5.72149e-20, cumulative = -2.0004e-18
DICPCG:  Solving for p, Initial residual = 0.000730901, Final residual = 7.50063e-07, No Iterations 40
time step continuity errors : sum local = 3.47251e-10, global = -2.41981e-19, cumulative = -2.24238e-18
ExecutionTime = 0.38 s  ClockTime = 3 s

Time = 0.059

Courant Number mean: 0.0405399 max: 0.250762
DILUPBiCGStab:  Solving for Ux, Initial residual = 0.00305344, Final residual = 3.01224e-08, No Iterations 1
DILUPBiCGStab:  Solving for Uy, Initial residual = 0.00383914, Final residual = 6.24403e-08, No Iterations 1
DICPCG:  Solving for p, Initial residual = 0.00284283, Final residual = 2.48495e-05, No Iterations 35
time step continuity errors : sum local = 1.15558e-08, global = -4.21842e-21, cumulative = -2.2466e-18
DICPCG:  Solving for p, Initial residual = 0.000720285, Final residual = 7.37907e-07, No Iterations 40
time step continuity errors : sum local = 3.42162e-10, global = 5.90731e-20, cumulative = -2.18752e-18
ExecutionTime = 0.38 s  ClockTime = 3 s

Time = 0.06

Courant Number mean: 0.0407645 max: 0.251088
DILUPBiCGStab:  Solving for Ux, Initial residual = 0.00299283, Final residual = 2.94656e-08, No Iterations 1
DILUPBiCGStab:  Solving for Uy, Initial residual = 0.00376795, Final residual = 6.10278e-08, No Iterations 1
DICPCG:  Solving for p, Initial residual = 0.0027969, Final residual = 2.47423e-05, No Iterations 35
time step continuity errors : sum local = 1.1523e-08, global = 1.13411e-19, cumulative = -2.07411e-18
DICPCG:  Solving for p, Initial residual = 0.00070973, Final residual = 7.26233e-07, No Iterations 40
time step continuity errors : sum local = 3.37261e-10, global = -3.98536e-20, cumulative = -2.11397e-18
ExecutionTime = 0.38 s  ClockTime = 3 s

streamLine streamlines write:
    seeded 24 particles
    Tracks:24
    Total samples:12733
Time = 0.061

Courant Number mean: 0.0409848 max: 0.251406
DILUPBiCGStab:  Solving for Ux, Initial residual = 0.00293382, Final residual = 2.88426e-08, No Iterations 1
DILUPBiCGStab:  Solving for Uy, Initial residual = 0.00369911, Final residual = 5.96871e-08, No Iterations 1
DICPCG:  Solving for p, Initial residual = 0.00275346, Final residual = 2.46042e-05, No Iterations 35
time step continuity errors : sum local = 1.14751e-08, global = -1.0418e-19, cumulative = -2.21815e-18
DICPCG:  Solving for p, Initial residual = 0.000699401, Final residual = 7.14267e-07, No Iterations 40
time step continuity errors : sum local = 3.32193e-10, global = -2.25733e-20, cumulative = -2.24072e-18
ExecutionTime = 0.42 s  ClockTime = 3 s

Time = 0.062

Courant Number mean: 0.041201 max: 0.251715
DILUPBiCGStab:  Solving for Ux, Initial residual = 0.00287701, Final residual = 2.82485e-08, No Iterations 1
DILUPBiCGStab:  Solving for Uy, Initial residual = 0.00363275, Final residual = 5.83861e-08, No Iterations 1
DICPCG:  Solving for p, Initial residual = 0.00271062, Final residual = 2.44528e-05, No Iterations 35
time step continuity errors : sum local = 1.14203e-08, global = -1.27365e-20, cumulative = -2.25346e-18
DICPCG:  Solving for p, Initial residual = 0.000689146, Final residual = 7.02121e-07, No Iterations 40
time step continuity errors : sum local = 3.2701e-10, global = -5.83557e-20, cumulative = -2.31181e-18
ExecutionTime = 0.43 s  ClockTime = 3 s

Time = 0.063

Courant Number mean: 0.0414141 max: 0.252016
DILUPBiCGStab:  Solving for Ux, Initial residual = 0.00282198, Final residual = 2.76813e-08, No Iterations 1
DILUPBiCGStab:  Solving for Uy, Initial residual = 0.0035685, Final residual = 5.71228e-08, No Iterations 1
DICPCG:  Solving for p, Initial residual = 0.00266824, Final residual = 2.42804e-05, No Iterations 35
time step continuity errors : sum local = 1.13553e-08, global = 1.60471e-20, cumulative = -2.29577e-18
DICPCG:  Solving for p, Initial residual = 0.000678969, Final residual = 6.89922e-07, No Iterations 40
time step continuity errors : sum local = 3.21788e-10, global = -5.10648e-20, cumulative = -2.34683e-18
ExecutionTime = 0.43 s  ClockTime = 3 s

Time = 0.064

Courant Number mean: 0.0416271 max: 0.252308
DILUPBiCGStab:  Solving for Ux, Initial residual = 0.00276858, Final residual = 2.7111e-08, No Iterations 1
DILUPBiCGStab:  Solving for Uy, Initial residual = 0.00350629, Final residual = 5.5904e-08, No Iterations 1
DICPCG:  Solving for p, Initial residual = 0.00262614, Final residual = 2.40839e-05, No Iterations 35
time step continuity errors : sum local = 1.12786e-08, global = 1.74482e-19, cumulative = -2.17235e-18
DICPCG:  Solving for p, Initial residual = 0.000669113, Final residual = 6.77987e-07, No Iterations 40
time step continuity errors : sum local = 3.16672e-10, global = -1.64344e-19, cumulative = -2.33669e-18
ExecutionTime = 0.43 s  ClockTime = 3 s

Time = 0.065

Courant Number mean: 0.0418379 max: 0.252594
DILUPBiCGStab:  Solving for Ux, Initial residual = 0.0027168, Final residual = 2.65432e-08, No Iterations 1
DILUPBiCGStab:  Solving for Uy, Initial residual = 0.00344601, Final residual = 5.472e-08, No Iterations 1
DICPCG:  Solving for p, Initial residual = 0.00258561, Final residual = 2.38598e-05, No Iterations 35
time step continuity errors : sum local = 1.11887e-08, global = 5.46795e-20, cumulative = -2.28201e-18
DICPCG:  Solving for p, Initial residual = 0.000659364, Final residual = 6.66465e-07, No Iterations 40
time step continuity errors : sum local = 3.11722e-10, global = 3.94864e-20, cumulative = -2.24253e-18
ExecutionTime = 0.43 s  ClockTime = 3 s

Time = 0.066

Courant Number mean: 0.0420475 max: 0.252872
DILUPBiCGStab:  Solving for Ux, Initial residual = 0.00266615, Final residual = 2.59725e-08, No Iterations 1
DILUPBiCGStab:  Solving for Uy, Initial residual = 0.00338759, Final residual = 5.35671e-08, No Iterations 1
DICPCG:  Solving for p, Initial residual = 0.00254589, Final residual = 2.36242e-05, No Iterations 35
time step continuity errors : sum local = 1.10928e-08, global = 2.58089e-19, cumulative = -1.98444e-18
DICPCG:  Solving for p, Initial residual = 0.000649813, Final residual = 6.55304e-07, No Iterations 40
time step continuity errors : sum local = 3.06922e-10, global = -7.65935e-20, cumulative = -2.06103e-18
ExecutionTime = 0.43 s  ClockTime = 3 s

Time = 0.067

Courant Number mean: 0.0422542 max: 0.253143
DILUPBiCGStab:  Solving for Ux, Initial residual = 0.00261681, Final residual = 2.54209e-08, No Iterations 1
DILUPBiCGStab:  Solving for Uy, Initial residual = 0.00333096, Final residual = 5.24421e-08, No Iterations 1
DICPCG:  Solving for p, Initial residual = 0.0025082, Final residual = 2.33787e-05, No Iterations 35
time step continuity errors : sum local = 1.09916e-08, global = -1.27193e-19, cumulative = -2.18822e-18
DICPCG:  Solving for p, Initial residual = 0.000640708, Final residual = 6.44322e-07, No Iterations 40
time step continuity errors : sum local = 3.02179e-10, global = 9.00301e-20, cumulative = -2.09819e-18
ExecutionTime = 0.43 s  ClockTime = 3 s

Time = 0.068

Courant Number mean: 0.0424576 max: 0.253407
DILUPBiCGStab:  Solving for Ux, Initial residual = 0.00256914, Final residual = 2.4892e-08, No Iterations 1
DILUPBiCGStab:  Solving for Uy, Initial residual = 0.00327597, Final residual = 5.13453e-08, No Iterations 1
DICPCG:  Solving for p, Initial residual = 0.00247378, Final residual = 2.31279e-05, No Iterations 35
time step continuity errors : sum local = 1.08872e-08, global = -5.56267e-20, cumulative = -2.15382e-18
DICPCG:  Solving for p, Initial residual = 0.000632171, Final residual = 6.33573e-07, No Iterations 40
time step continuity errors : sum local = 2.97519e-10, global = 1.18047e-19, cumulative = -2.03577e-18
ExecutionTime = 0.44 s  ClockTime = 3 s

Time = 0.069

Courant Number mean: 0.0426605 max: 0.253665
DILUPBiCGStab:  Solving for Ux, Initial residual = 0.00252256, Final residual = 2.43568e-08, No Iterations 1
DILUPBiCGStab:  Solving for Uy, Initial residual = 0.00322253, Final residual = 5.02902e-08, No Iterations 1
DICPCG:  Solving for p, Initial residual = 0.00243883, Final residual = 2.28816e-05, No Iterations 35
time step continuity errors : sum local = 1.07841e-08, global = -2.33967e-19, cumulative = -2.26974e-18
DICPCG:  Solving for p, Initial residual = 0.000624107, Final residual = 6.23017e-07, No Iterations 40
time step continuity errors : sum local = 2.92925e-10, global = -1.85104e-19, cumulative = -2.45484e-18
ExecutionTime = 0.44 s  ClockTime = 3 s

Time = 0.07

Courant Number mean: 0.0428616 max: 0.253916
DILUPBiCGStab:  Solving for Ux, Initial residual = 0.00247719, Final residual = 2.38326e-08, No Iterations 1
DILUPBiCGStab:  Solving for Uy, Initial residual = 0.0031706, Final residual = 4.92794e-08, No Iterations 1
DICPCG:  Solving for p, Initial residual = 0.002404, Final residual = 2.26299e-05, No Iterations 35
time step continuity errors : sum local = 1.06778e-08, global = 1.75455e-19, cumulative = -2.27939e-18
DICPCG:  Solving for p, Initial residual = 0.00061625, Final residual = 6.13106e-07, No Iterations 40
time step continuity errors : sum local = 2.88611e-10, global = -4.63513e-20, cumulative = -2.32574e-18
ExecutionTime = 0.44 s  ClockTime = 3 s

Time = 0.071

Courant Number mean: 0.0430595 max: 0.254162
DILUPBiCGStab:  Solving for Ux, Initial residual = 0.00243299, Final residual = 2.3324e-08, No Iterations 1
DILUPBiCGStab:  Solving for Uy, Initial residual = 0.00312016, Final residual = 4.82908e-08, No Iterations 1
DICPCG:  Solving for p, Initial residual = 0.00237139, Final residual = 2.23711e-05, No Iterations 35
time step continuity errors : sum local = 1.05676e-08, global = 3.54966e-20, cumulative = -2.29024e-18
DICPCG:  Solving for p, Initial residual = 0.000608515, Final residual = 6.02945e-07, No Iterations 40
time step continuity errors : sum local = 2.84171e-10, global = 1.85383e-19, cumulative = -2.10486e-18
ExecutionTime = 0.44 s  ClockTime = 3 s

Time = 0.072

Courant Number mean: 0.0432542 max: 0.254402
DILUPBiCGStab:  Solving for Ux, Initial residual = 0.00239029, Final residual = 2.28307e-08, No Iterations 1
DILUPBiCGStab:  Solving for Uy, Initial residual = 0.00307113, Final residual = 4.73217e-08, No Iterations 1
DICPCG:  Solving for p, Initial residual = 0.00233931, Final residual = 2.21109e-05, No Iterations 35
time step continuity errors : sum local = 1.04563e-08, global = 1.35349e-19, cumulative = -1.96951e-18
DICPCG:  Solving for p, Initial residual = 0.00060084, Final residual = 5.92903e-07, No Iterations 40
time step continuity errors : sum local = 2.79764e-10, global = -8.45908e-20, cumulative = -2.0541e-18
ExecutionTime = 0.44 s  ClockTime = 3 s

Time = 0.073

Courant Number mean: 0.0434473 max: 0.254636
DILUPBiCGStab:  Solving for Ux, Initial residual = 0.00234896, Final residual = 2.2351e-08, No Iterations 1
DILUPBiCGStab:  Solving for Uy, Initial residual = 0.00302343, Final residual = 4.63778e-08, No Iterations 1
DICPCG:  Solving for p, Initial residual = 0.00230773, Final residual = 2.18604e-05, No Iterations 35
time step continuity errors : sum local = 1.03488e-08, global = -1.49582e-19, cumulative = -2.20368e-18
DICPCG:  Solving for p, Initial residual = 0.000593225, Final residual = 5.83002e-07, No Iterations 40
time step continuity errors : sum local = 2.75405e-10, global = 3.41235e-20, cumulative = -2.16956e-18
ExecutionTime = 0.44 s  ClockTime = 3 s

Time = 0.074

Courant Number mean: 0.0436388 max: 0.254865
DILUPBiCGStab:  Solving for Ux, Initial residual = 0.00230982, Final residual = 2.188e-08, No Iterations 1
DILUPBiCGStab:  Solving for Uy, Initial residual = 0.002977, Final residual = 4.54758e-08, No Iterations 1
DICPCG:  Solving for p, Initial residual = 0.00227707, Final residual = 2.1606e-05, No Iterations 35
time step continuity errors : sum local = 1.02389e-08, global = 7.97586e-20, cumulative = -2.0898e-18
DICPCG:  Solving for p, Initial residual = 0.000585878, Final residual = 5.73004e-07, No Iterations 40
time step continuity errors : sum local = 2.70983e-10, global = -1.69109e-19, cumulative = -2.25891e-18
ExecutionTime = 0.45 s  ClockTime = 3 s

Time = 0.075

Courant Number mean: 0.0438274 max: 0.255088
DILUPBiCGStab:  Solving for Ux, Initial residual = 0.00227203, Final residual = 2.14252e-08, No Iterations 1
DILUPBiCGStab:  Solving for Uy, Initial residual = 0.00293182, Final residual = 4.46053e-08, No Iterations 1
DICPCG:  Solving for p, Initial residual = 0.00224708, Final residual = 2.13435e-05, No Iterations 35
time step continuity errors : sum local = 1.01247e-08, global = -8.61262e-20, cumulative = -2.34504e-18
DICPCG:  Solving for p, Initial residual = 0.000578785, Final residual = 5.62982e-07, No Iterations 40
time step continuity errors : sum local = 2.66533e-10, global = 2.75787e-19, cumulative = -2.06925e-18
ExecutionTime = 0.45 s  ClockTime = 3 s

Time = 0.076

Courant Number mean: 0.0440131 max: 0.255306
DILUPBiCGStab:  Solving for Ux, Initial residual = 0.00223536, Final residual = 2.09874e-08, No Iterations 1
DILUPBiCGStab:  Solving for Uy, Initial residual = 0.00288781, Final residual = 4.37552e-08, No Iterations 1
DICPCG:  Solving for p, Initial residual = 0.00221823, Final residual = 2.10793e-05, No Iterations 35
time step continuity errors : sum local = 1.00091e-08, global = 9.56874e-20, cumulative = -1.97356e-18
DICPCG:  Solving for p, Initial residual = 0.000571841, Final residual = 5.53053e-07, No Iterations 40
time step continuity errors : sum local = 2.6211e-10, global = -2.00017e-19, cumulative = -2.17358e-18
ExecutionTime = 0.45 s  ClockTime = 3 s

Time = 0.077

Courant Number mean: 0.0441965 max: 0.25552
DILUPBiCGStab:  Solving for Ux, Initial residual = 0.00219976, Final residual = 2.05587e-08, No Iterations 1
DILUPBiCGStab:  Solving for Uy, Initial residual = 0.00284488, Final residual = 4.28518e-08, No Iterations 1
DICPCG:  Solving for p, Initial residual = 0.0021921, Final residual = 2.08224e-05, No Iterations 35
time step continuity errors : sum local = 9.8964e-09, global = 1.37104e-19, cumulative = -2.03647e-18
DICPCG:  Solving for p, Initial residual = 0.000564747, Final residual = 5.43256e-07, No Iterations 40
time step continuity errors : sum local = 2.57733e-10, global = -7.91843e-20, cumulative = -2.11566e-18
ExecutionTime = 0.45 s  ClockTime = 3 s

Time = 0.078

Courant Number mean: 0.0443773 max: 0.255729
DILUPBiCGStab:  Solving for Ux, Initial residual = 0.00216496, Final residual = 2.01333e-08, No Iterations 1
DILUPBiCGStab:  Solving for Uy, Initial residual = 0.002803, Final residual = 4.19299e-08, No Iterations 1
DICPCG:  Solving for p, Initial residual = 0.00216644, Final residual = 2.05621e-05, No Iterations 35
time step continuity errors : sum local = 9.78156e-09, global = -3.08311e-20, cumulative = -2.14649e-18
DICPCG:  Solving for p, Initial residual = 0.000557687, Final residual = 5.33438e-07, No Iterations 40
time step continuity errors : sum local = 2.5333e-10, global = 5.44525e-20, cumulative = -2.09204e-18
ExecutionTime = 0.45 s  ClockTime = 3 s

Time = 0.079

Courant Number mean: 0.0445553 max: 0.255933
DILUPBiCGStab:  Solving for Ux, Initial residual = 0.00213133, Final residual = 1.97244e-08, No Iterations 1
DILUPBiCGStab:  Solving for Uy, Initial residual = 0.00276226, Final residual = 4.10455e-08, No Iterations 1
DICPCG:  Solving for p, Initial residual = 0.00213939, Final residual = 2.02943e-05, No Iterations 35
time step continuity errors : sum local = 9.66268e-09, global = -1.81147e-19, cumulative = -2.27318e-18
DICPCG:  Solving for p, Initial residual = 0.000551032, Final residual = 5.23581e-07, No Iterations 40
time step continuity errors : sum local = 2.48894e-10, global = 2.25413e-20, cumulative = -2.25064e-18
ExecutionTime = 0.45 s  ClockTime = 3 s

Time = 0.08

Courant Number mean: 0.0447317 max: 0.256133
DILUPBiCGStab:  Solving for Ux, Initial residual = 0.00209866, Final residual = 1.93225e-08, No Iterations 1
DILUPBiCGStab:  Solving for Uy, Initial residual = 0.00272257, Final residual = 4.02e-08, No Iterations 1
DICPCG:  Solving for p, Initial residual = 0.00211237, Final residual = 2.00316e-05, No Iterations 35
time step continuity errors : sum local = 9.54588e-09, global = -2.47576e-21, cumulative = -2.25312e-18
DICPCG:  Solving for p, Initial residual = 0.000544603, Final residual = 5.13988e-07, No Iterations 40
time step continuity errors : sum local = 2.44574e-10, global = 5.06805e-20, cumulative = -2.20244e-18
ExecutionTime = 0.45 s  ClockTime = 3 s

streamLine streamlines write:
    seeded 24 particles
    Tracks:24
    Total samples:14605
Time = 0.081

Courant Number mean: 0.0449068 max: 0.256328
DILUPBiCGStab:  Solving for Ux, Initial residual = 0.00206687, Final residual = 1.89301e-08, No Iterations 1
DILUPBiCGStab:  Solving for Uy, Initial residual = 0.00268383, Final residual = 3.93859e-08, No Iterations 1
DICPCG:  Solving for p, Initial residual = 0.00208674, Final residual = 1.97735e-05, No Iterations 35
time step continuity errors : sum local = 9.43092e-09, global = 1.59565e-19, cumulative = -2.04287e-18
DICPCG:  Solving for p, Initial residual = 0.000538288, Final residual = 5.04623e-07, No Iterations 40
time step continuity errors : sum local = 2.40353e-10, global = 3.14325e-19, cumulative = -1.72855e-18
ExecutionTime = 0.51 s  ClockTime = 3 s

Time = 0.082

Courant Number mean: 0.0450793 max: 0.256519
DILUPBiCGStab:  Solving for Ux, Initial residual = 0.00203591, Final residual = 1.85526e-08, No Iterations 1
DILUPBiCGStab:  Solving for Uy, Initial residual = 0.00264601, Final residual = 3.85987e-08, No Iterations 1
DICPCG:  Solving for p, Initial residual = 0.00206168, Final residual = 1.95264e-05, No Iterations 35
time step continuity errors : sum local = 9.32089e-09, global = -1.18614e-19, cumulative = -1.84716e-18
DICPCG:  Solving for p, Initial residual = 0.000531973, Final residual = 4.9563e-07, No Iterations 40
time step continuity errors : sum local = 2.36295e-10, global = -1.39953e-19, cumulative = -1.98711e-18
ExecutionTime = 0.51 s  ClockTime = 3 s

Time = 0.083

Courant Number mean: 0.0452495 max: 0.256707
DILUPBiCGStab:  Solving for Ux, Initial residual = 0.00200583, Final residual = 1.81892e-08, No Iterations 1
DILUPBiCGStab:  Solving for Uy, Initial residual = 0.00260917, Final residual = 3.78399e-08, No Iterations 1
DICPCG:  Solving for p, Initial residual = 0.00203669, Final residual = 1.92777e-05, No Iterations 35
time step continuity errors : sum local = 9.20972e-09, global = -1.83669e-19, cumulative = -2.17078e-18
DICPCG:  Solving for p, Initial residual = 0.000525748, Final residual = 4.87012e-07, No Iterations 40
time step continuity errors : sum local = 2.32403e-10, global = -5.76942e-20, cumulative = -2.22848e-18
ExecutionTime = 0.51 s  ClockTime = 3 s

Time = 0.084

Courant Number mean: 0.0454172 max: 0.25689
DILUPBiCGStab:  Solving for Ux, Initial residual = 0.00197638, Final residual = 1.78366e-08, No Iterations 1
DILUPBiCGStab:  Solving for Uy, Initial residual = 0.00257323, Final residual = 3.71164e-08, No Iterations 1
DICPCG:  Solving for p, Initial residual = 0.00201182, Final residual = 1.90355e-05, No Iterations 35
time step continuity errors : sum local = 9.10125e-09, global = -2.27644e-20, cumulative = -2.25124e-18
DICPCG:  Solving for p, Initial residual = 0.000519722, Final residual = 4.78888e-07, No Iterations 40
time step continuity errors : sum local = 2.28732e-10, global = 1.19314e-19, cumulative = -2.13193e-18
ExecutionTime = 0.51 s  ClockTime = 3 s

Time = 0.085

Courant Number mean: 0.0455826 max: 0.257069
DILUPBiCGStab:  Solving for Ux, Initial residual = 0.00194789, Final residual = 1.75024e-08, No Iterations 1
DILUPBiCGStab:  Solving for Uy, Initial residual = 0.00253814, Final residual = 3.64136e-08, No Iterations 1
DICPCG:  Solving for p, Initial residual = 0.00198723, Final residual = 1.87936e-05, No Iterations 35
time step continuity errors : sum local = 8.99258e-09, global = 7.31929e-20, cumulative = -2.05873e-18
DICPCG:  Solving for p, Initial residual = 0.000513935, Final residual = 4.71138e-07, No Iterations 40
time step continuity errors : sum local = 2.2523e-10, global = 2.44058e-19, cumulative = -1.81468e-18
ExecutionTime = 0.51 s  ClockTime = 3 s

Time = 0.086

Courant Number mean: 0.0457459 max: 0.257245
DILUPBiCGStab:  Solving for Ux, Initial residual = 0.00191999, Final residual = 1.71823e-08, No Iterations 1
DILUPBiCGStab:  Solving for Uy, Initial residual = 0.00250384, Final residual = 3.57302e-08, No Iterations 1
DICPCG:  Solving for p, Initial residual = 0.0019628, Final residual = 1.85537e-05, No Iterations 35
time step continuity errors : sum local = 8.88449e-09, global = -1.19446e-19, cumulative = -1.93412e-18
DICPCG:  Solving for p, Initial residual = 0.000508357, Final residual = 9.93018e-07, No Iterations 39
time step continuity errors : sum local = 4.76522e-10, global = -1.31611e-19, cumulative = -2.06573e-18
ExecutionTime = 0.51 s  ClockTime = 3 s

Time = 0.087

Courant Number mean: 0.045907 max: 0.257417
DILUPBiCGStab:  Solving for Ux, Initial residual = 0.00189263, Final residual = 1.68817e-08, No Iterations 1
DILUPBiCGStab:  Solving for Uy, Initial residual = 0.0024703, Final residual = 3.50648e-08, No Iterations 1
DICPCG:  Solving for p, Initial residual = 0.00193864, Final residual = 1.8279e-05, No Iterations 35
time step continuity errors : sum local = 8.75948e-09, global = 2.00742e-19, cumulative = -1.86499e-18
DICPCG:  Solving for p, Initial residual = 0.000502981, Final residual = 9.9066e-07, No Iterations 39
time step continuity errors : sum local = 4.75738e-10, global = 4.57865e-21, cumulative = -1.86041e-18
ExecutionTime = 0.52 s  ClockTime = 3 s

Time = 0.088

Courant Number mean: 0.0460659 max: 0.257586
DILUPBiCGStab:  Solving for Ux, Initial residual = 0.00186613, Final residual = 1.65922e-08, No Iterations 1
DILUPBiCGStab:  Solving for Uy, Initial residual = 0.00243753, Final residual = 3.44184e-08, No Iterations 1
DICPCG:  Solving for p, Initial residual = 0.00191517, Final residual = 1.80392e-05, No Iterations 35
time step continuity errors : sum local = 8.65063e-09, global = -6.17879e-20, cumulative = -1.9222e-18
DICPCG:  Solving for p, Initial residual = 0.000497558, Final residual = 9.70529e-07, No Iterations 39
time step continuity errors : sum local = 4.6642e-10, global = -5.27994e-20, cumulative = -1.975e-18
ExecutionTime = 0.52 s  ClockTime = 3 s

Time = 0.089

Courant Number mean: 0.0462227 max: 0.257751
DILUPBiCGStab:  Solving for Ux, Initial residual = 0.00184015, Final residual = 1.6311e-08, No Iterations 1
DILUPBiCGStab:  Solving for Uy, Initial residual = 0.00240547, Final residual = 3.37875e-08, No Iterations 1
DICPCG:  Solving for p, Initial residual = 0.00189216, Final residual = 1.78289e-05, No Iterations 35
time step continuity errors : sum local = 8.5556e-09, global = 3.10027e-21, cumulative = -1.9719e-18
DICPCG:  Solving for p, Initial residual = 0.00049221, Final residual = 9.60807e-07, No Iterations 39
time step continuity errors : sum local = 4.62096e-10, global = -7.22377e-21, cumulative = -1.97912e-18
ExecutionTime = 0.52 s  ClockTime = 3 s

Time = 0.09

Courant Number mean: 0.0463773 max: 0.257913
DILUPBiCGStab:  Solving for Ux, Initial residual = 0.00181473, Final residual = 1.60359e-08, No Iterations 1
DILUPBiCGStab:  Solving for Uy, Initial residual = 0.00237407, Final residual = 3.31783e-08, No Iterations 1
DICPCG:  Solving for p, Initial residual = 0.00186924, Final residual = 1.75901e-05, No Iterations 35
time step continuity errors : sum local = 8.44663e-09, global = -2.37387e-19, cumulative = -2.21651e-18
DICPCG:  Solving for p, Initial residual = 0.0004869, Final residual = 9.44828e-07, No Iterations 39
time step continuity errors : sum local = 4.5478e-10, global = -1.11409e-19, cumulative = -2.32792e-18
ExecutionTime = 0.52 s  ClockTime = 3 s

Time = 0.091

Courant Number mean: 0.0465302 max: 0.258072
DILUPBiCGStab:  Solving for Ux, Initial residual = 0.00178994, Final residual = 1.57682e-08, No Iterations 1
DILUPBiCGStab:  Solving for Uy, Initial residual = 0.00234332, Final residual = 3.25841e-08, No Iterations 1
DICPCG:  Solving for p, Initial residual = 0.00184685, Final residual = 1.73665e-05, No Iterations 35
time step continuity errors : sum local = 8.3456e-09, global = -8.46901e-20, cumulative = -2.41261e-18
DICPCG:  Solving for p, Initial residual = 0.000481666, Final residual = 9.31901e-07, No Iterations 39
time step continuity errors : sum local = 4.48917e-10, global = -1.01408e-20, cumulative = -2.42275e-18
ExecutionTime = 0.52 s  ClockTime = 3 s

Time = 0.092

Courant Number mean: 0.0466819 max: 0.258227
DILUPBiCGStab:  Solving for Ux, Initial residual = 0.00176596, Final residual = 1.55067e-08, No Iterations 1
DILUPBiCGStab:  Solving for Uy, Initial residual = 0.00231321, Final residual = 3.20029e-08, No Iterations 1
DICPCG:  Solving for p, Initial residual = 0.00182542, Final residual = 1.71331e-05, No Iterations 35
time step continuity errors : sum local = 8.23975e-09, global = -1.95569e-19, cumulative = -2.61832e-18
DICPCG:  Solving for p, Initial residual = 0.000476695, Final residual = 9.17512e-07, No Iterations 39
time step continuity errors : sum local = 4.42347e-10, global = 1.7493e-19, cumulative = -2.44339e-18
ExecutionTime = 0.52 s  ClockTime = 3 s

Time = 0.093

Courant Number mean: 0.0468325 max: 0.25838
DILUPBiCGStab:  Solving for Ux, Initial residual = 0.00174259, Final residual = 1.5252e-08, No Iterations 1
DILUPBiCGStab:  Solving for Uy, Initial residual = 0.00228373, Final residual = 3.14354e-08, No Iterations 1
DICPCG:  Solving for p, Initial residual = 0.00180439, Final residual = 1.68983e-05, No Iterations 35
time step continuity errors : sum local = 8.13319e-09, global = 5.10656e-20, cumulative = -2.39233e-18
DICPCG:  Solving for p, Initial residual = 0.00047181, Final residual = 9.04305e-07, No Iterations 39
time step continuity errors : sum local = 4.36352e-10, global = -8.30837e-20, cumulative = -2.47541e-18
ExecutionTime = 0.52 s  ClockTime = 3 s

Time = 0.094

Courant Number mean: 0.0469811 max: 0.258529
DILUPBiCGStab:  Solving for Ux, Initial residual = 0.00171975, Final residual = 1.50113e-08, No Iterations 1
DILUPBiCGStab:  Solving for Uy, Initial residual = 0.00225487, Final residual = 3.08845e-08, No Iterations 1
DICPCG:  Solving for p, Initial residual = 0.001784, Final residual = 1.66627e-05, No Iterations 35
time step continuity errors : sum local = 8.02621e-09, global = -2.53719e-19, cumulative = -2.72913e-18
DICPCG:  Solving for p, Initial residual = 0.000467081, Final residual = 8.90792e-07, No Iterations 39
time step continuity errors : sum local = 4.30186e-10, global = -6.72419e-20, cumulative = -2.79637e-18
ExecutionTime = 0.53 s  ClockTime = 3 s

Time = 0.095

Courant Number mean: 0.0471278 max: 0.258676
DILUPBiCGStab:  Solving for Ux, Initial residual = 0.00169743, Final residual = 1.4783e-08, No Iterations 1
DILUPBiCGStab:  Solving for Uy, Initial residual = 0.00222668, Final residual = 3.03445e-08, No Iterations 1
DICPCG:  Solving for p, Initial residual = 0.00176388, Final residual = 1.64242e-05, No Iterations 35
time step continuity errors : sum local = 7.91751e-09, global = 4.95986e-20, cumulative = -2.74677e-18
DICPCG:  Solving for p, Initial residual = 0.000462376, Final residual = 8.77647e-07, No Iterations 39
time step continuity errors : sum local = 4.24177e-10, global = -1.13138e-19, cumulative = -2.85991e-18
ExecutionTime = 0.53 s  ClockTime = 3 s

Time = 0.096

Courant Number mean: 0.0472726 max: 0.25882
DILUPBiCGStab:  Solving for Ux, Initial residual = 0.0016756, Final residual = 1.45615e-08, No Iterations 1
DILUPBiCGStab:  Solving for Uy, Initial residual = 0.00219907, Final residual = 2.98181e-08, No Iterations 1
DICPCG:  Solving for p, Initial residual = 0.00174418, Final residual = 1.61838e-05, No Iterations 35
time step continuity errors : sum local = 7.80745e-09, global = 1.19713e-19, cumulative = -2.7402e-18
DICPCG:  Solving for p, Initial residual = 0.000457675, Final residual = 8.64442e-07, No Iterations 39
time step continuity errors : sum local = 4.18117e-10, global = 3.0075e-20, cumulative = -2.71012e-18
ExecutionTime = 0.53 s  ClockTime = 3 s

Time = 0.097

Courant Number mean: 0.0474155 max: 0.258961
DILUPBiCGStab:  Solving for Ux, Initial residual = 0.00165426, Final residual = 1.43532e-08, No Iterations 1
DILUPBiCGStab:  Solving for Uy, Initial residual = 0.00217199, Final residual = 2.93025e-08, No Iterations 1
DICPCG:  Solving for p, Initial residual = 0.00172468, Final residual = 1.5946e-05, No Iterations 35
time step continuity errors : sum local = 7.69833e-09, global = 4.60826e-20, cumulative = -2.66404e-18
DICPCG:  Solving for p, Initial residual = 0.000453079, Final residual = 8.51414e-07, No Iterations 39
time step continuity errors : sum local = 4.12124e-10, global = -1.17966e-19, cumulative = -2.782e-18
ExecutionTime = 0.53 s  ClockTime = 3 s

Time = 0.098

Courant Number mean: 0.0475567 max: 0.2591
DILUPBiCGStab:  Solving for Ux, Initial residual = 0.00163347, Final residual = 1.41517e-08, No Iterations 1
DILUPBiCGStab:  Solving for Uy, Initial residual = 0.00214545, Final residual = 2.88008e-08, No Iterations 1
DICPCG:  Solving for p, Initial residual = 0.00170544, Final residual = 1.57112e-05, No Iterations 35
time step continuity errors : sum local = 7.59035e-09, global = -7.41935e-20, cumulative = -2.8562e-18
DICPCG:  Solving for p, Initial residual = 0.000448499, Final residual = 8.38438e-07, No Iterations 39
time step continuity errors : sum local = 4.06139e-10, global = -2.86287e-20, cumulative = -2.88483e-18
ExecutionTime = 0.53 s  ClockTime = 3 s

Time = 0.099

Courant Number mean: 0.0476962 max: 0.259235
DILUPBiCGStab:  Solving for Ux, Initial residual = 0.00161324, Final residual = 1.39609e-08, No Iterations 1
DILUPBiCGStab:  Solving for Uy, Initial residual = 0.00211942, Final residual = 2.83121e-08, No Iterations 1
DICPCG:  Solving for p, Initial residual = 0.00168662, Final residual = 1.54832e-05, No Iterations 35
time step continuity errors : sum local = 7.48534e-09, global = -1.49876e-19, cumulative = -3.0347e-18
DICPCG:  Solving for p, Initial residual = 0.000443905, Final residual = 8.25754e-07, No Iterations 39
time step continuity errors : sum local = 4.00286e-10, global = 1.60083e-19, cumulative = -2.87462e-18
ExecutionTime = 0.53 s  ClockTime = 3 s

Time = 0.1

Courant Number mean: 0.0478339 max: 0.259369
DILUPBiCGStab:  Solving for Ux, Initial residual = 0.00159343, Final residual = 1.37768e-08, No Iterations 1
DILUPBiCGStab:  Solving for Uy, Initial residual = 0.00209391, Final residual = 2.78378e-08, No Iterations 1
DICPCG:  Solving for p, Initial residual = 0.00166838, Final residual = 1.52577e-05, No Iterations 35
time step continuity errors : sum local = 7.38133e-09, global = -9.30806e-20, cumulative = -2.9677e-18
DICPCG:  Solving for p, Initial residual = 0.000439373, Final residual = 8.13368e-07, No Iterations 39
time step continuity errors : sum local = 3.94559e-10, global = -9.48946e-20, cumulative = -3.0626e-18
ExecutionTime = 0.54 s  ClockTime = 3 s

streamLine streamlines write:
    seeded 24 particles
    Tracks:24
    Total samples:17015
Time = 0.101

Courant Number mean: 0.0479701 max: 0.259499
DILUPBiCGStab:  Solving for Ux, Initial residual = 0.00157408, Final residual = 1.35977e-08, No Iterations 1
DILUPBiCGStab:  Solving for Uy, Initial residual = 0.00206888, Final residual = 2.7383e-08, No Iterations 1
DICPCG:  Solving for p, Initial residual = 0.00165064, Final residual = 1.50317e-05, No Iterations 35
[...]
time step continuity errors : sum local = 4.34319e-10, global = 1.72748e-20, cumulative = 4.55685e-18
ExecutionTime = 14.94 s  ClockTime = 17 s

Time = 1.974

Courant Number mean: 0.0684035 max: 0.269
DILUPBiCGStab:  Solving for Ux, Initial residual = 6.15722e-08, Final residual = 6.15722e-08, No Iterations 0
DILUPBiCGStab:  Solving for Uy, Initial residual = 6.88424e-08, Final residual = 6.88424e-08, No Iterations 0
DICPCG:  Solving for p, Initial residual = 9.67789e-07, Final residual = 9.67789e-07, No Iterations 0
time step continuity errors : sum local = 6.29063e-10, global = -1.49362e-19, cumulative = 4.40748e-18
DICPCG:  Solving for p, Initial residual = 1.00777e-06, Final residual = 5.50121e-07, No Iterations 1
time step continuity errors : sum local = 4.12285e-10, global = -1.10018e-19, cumulative = 4.29746e-18
ExecutionTime = 14.94 s  ClockTime = 17 s

Time = 1.975

Courant Number mean: 0.0684035 max: 0.269
DILUPBiCGStab:  Solving for Ux, Initial residual = 6.1021e-08, Final residual = 6.1021e-08, No Iterations 0
DILUPBiCGStab:  Solving for Uy, Initial residual = 6.80774e-08, Final residual = 6.80774e-08, No Iterations 0
DICPCG:  Solving for p, Initial residual = 7.68264e-07, Final residual = 7.68264e-07, No Iterations 0
time step continuity errors : sum local = 5.25794e-10, global = -1.04096e-19, cumulative = 4.19337e-18
DICPCG:  Solving for p, Initial residual = 7.92415e-07, Final residual = 7.92415e-07, No Iterations 0
time step continuity errors : sum local = 5.38361e-10, global = 5.05242e-21, cumulative = 4.19842e-18
ExecutionTime = 14.94 s  ClockTime = 17 s

Time = 1.976

Courant Number mean: 0.0684035 max: 0.269
DILUPBiCGStab:  Solving for Ux, Initial residual = 6.07668e-08, Final residual = 6.07668e-08, No Iterations 0
DILUPBiCGStab:  Solving for Uy, Initial residual = 6.74978e-08, Final residual = 6.74978e-08, No Iterations 0
DICPCG:  Solving for p, Initial residual = 9.97955e-07, Final residual = 9.97955e-07, No Iterations 0
time step continuity errors : sum local = 6.45312e-10, global = -3.43773e-19, cumulative = 3.85465e-18
DICPCG:  Solving for p, Initial residual = 1.02787e-06, Final residual = 5.60513e-07, No Iterations 1
time step continuity errors : sum local = 4.18497e-10, global = -3.33953e-19, cumulative = 3.5207e-18
ExecutionTime = 14.94 s  ClockTime = 17 s

Time = 1.977

Courant Number mean: 0.0684035 max: 0.269
DILUPBiCGStab:  Solving for Ux, Initial residual = 6.07598e-08, Final residual = 6.07598e-08, No Iterations 0
DILUPBiCGStab:  Solving for Uy, Initial residual = 6.78602e-08, Final residual = 6.78602e-08, No Iterations 0
DICPCG:  Solving for p, Initial residual = 9.44144e-07, Final residual = 9.44144e-07, No Iterations 0
time step continuity errors : sum local = 6.18116e-10, global = 1.3169e-19, cumulative = 3.65239e-18
DICPCG:  Solving for p, Initial residual = 9.84245e-07, Final residual = 9.84245e-07, No Iterations 0
time step continuity errors : sum local = 6.38983e-10, global = 1.91009e-19, cumulative = 3.8434e-18
ExecutionTime = 14.95 s  ClockTime = 17 s

Time = 1.978

Courant Number mean: 0.0684036 max: 0.269
DILUPBiCGStab:  Solving for Ux, Initial residual = 6.0435e-08, Final residual = 6.0435e-08, No Iterations 0
DILUPBiCGStab:  Solving for Uy, Initial residual = 6.72159e-08, Final residual = 6.72159e-08, No Iterations 0
DICPCG:  Solving for p, Initial residual = 1.32579e-06, Final residual = 5.52765e-07, No Iterations 1
time step continuity errors : sum local = 4.15103e-10, global = -2.14306e-20, cumulative = 3.82196e-18
DICPCG:  Solving for p, Initial residual = 5.91177e-07, Final residual = 5.91177e-07, No Iterations 0
time step continuity errors : sum local = 4.3509e-10, global = -9.21479e-21, cumulative = 3.81275e-18
ExecutionTime = 14.95 s  ClockTime = 17 s

Time = 1.979

Courant Number mean: 0.0684036 max: 0.269
DILUPBiCGStab:  Solving for Ux, Initial residual = 6.05327e-08, Final residual = 6.05327e-08, No Iterations 0
DILUPBiCGStab:  Solving for Uy, Initial residual = 6.73838e-08, Final residual = 6.73838e-08, No Iterations 0
DICPCG:  Solving for p, Initial residual = 1.08111e-06, Final residual = 5.62255e-07, No Iterations 1
time step continuity errors : sum local = 4.20606e-10, global = 7.29242e-20, cumulative = 3.88567e-18
DICPCG:  Solving for p, Initial residual = 5.76487e-07, Final residual = 5.76487e-07, No Iterations 0
time step continuity errors : sum local = 4.28011e-10, global = -5.4991e-20, cumulative = 3.83068e-18
ExecutionTime = 14.95 s  ClockTime = 17 s

Time = 1.98

Courant Number mean: 0.0684036 max: 0.269
DILUPBiCGStab:  Solving for Ux, Initial residual = 5.9459e-08, Final residual = 5.9459e-08, No Iterations 0
DILUPBiCGStab:  Solving for Uy, Initial residual = 6.62296e-08, Final residual = 6.62296e-08, No Iterations 0
DICPCG:  Solving for p, Initial residual = 7.56864e-07, Final residual = 7.56864e-07, No Iterations 0
time step continuity errors : sum local = 5.21869e-10, global = -9.142e-21, cumulative = 3.82154e-18
DICPCG:  Solving for p, Initial residual = 7.76981e-07, Final residual = 7.76981e-07, No Iterations 0
time step continuity errors : sum local = 5.32337e-10, global = -2.02643e-19, cumulative = 3.6189e-18
ExecutionTime = 14.95 s  ClockTime = 17 s

streamLine streamlines write:
    seeded 24 particles
    Tracks:24
    Total samples:41143
Time = 1.981

Courant Number mean: 0.0684036 max: 0.269
DILUPBiCGStab:  Solving for Ux, Initial residual = 5.92444e-08, Final residual = 5.92444e-08, No Iterations 0
DILUPBiCGStab:  Solving for Uy, Initial residual = 6.57014e-08, Final residual = 6.57014e-08, No Iterations 0
DICPCG:  Solving for p, Initial residual = 9.46127e-07, Final residual = 9.46127e-07, No Iterations 0
time step continuity errors : sum local = 6.2035e-10, global = 3.41129e-21, cumulative = 3.62231e-18
DICPCG:  Solving for p, Initial residual = 9.73474e-07, Final residual = 9.73474e-07, No Iterations 0
time step continuity errors : sum local = 6.3458e-10, global = -2.07176e-19, cumulative = 3.41513e-18
ExecutionTime = 15.08 s  ClockTime = 17 s

Time = 1.982

Courant Number mean: 0.0684036 max: 0.269
DILUPBiCGStab:  Solving for Ux, Initial residual = 5.90517e-08, Final residual = 5.90517e-08, No Iterations 0
DILUPBiCGStab:  Solving for Uy, Initial residual = 6.52024e-08, Final residual = 6.52024e-08, No Iterations 0
DICPCG:  Solving for p, Initial residual = 1.14044e-06, Final residual = 6.62956e-07, No Iterations 1
time step continuity errors : sum local = 4.73977e-10, global = -1.83707e-19, cumulative = 3.23143e-18
DICPCG:  Solving for p, Initial residual = 7.07533e-07, Final residual = 7.07533e-07, No Iterations 0
time step continuity errors : sum local = 4.97206e-10, global = -6.19459e-20, cumulative = 3.16948e-18
ExecutionTime = 15.08 s  ClockTime = 17 s

Time = 1.983

Courant Number mean: 0.0684036 max: 0.269
DILUPBiCGStab:  Solving for Ux, Initial residual = 5.93746e-08, Final residual = 5.93746e-08, No Iterations 0
DILUPBiCGStab:  Solving for Uy, Initial residual = 6.59384e-08, Final residual = 6.59384e-08, No Iterations 0
DICPCG:  Solving for p, Initial residual = 1.20734e-06, Final residual = 6.28788e-07, No Iterations 1
time step continuity errors : sum local = 4.56719e-10, global = -7.64315e-21, cumulative = 3.16184e-18
DICPCG:  Solving for p, Initial residual = 6.46891e-07, Final residual = 6.46891e-07, No Iterations 0
time step continuity errors : sum local = 4.66139e-10, global = -2.09436e-19, cumulative = 2.9524e-18
ExecutionTime = 15.08 s  ClockTime = 17 s

Time = 1.984

Courant Number mean: 0.0684036 max: 0.269
DILUPBiCGStab:  Solving for Ux, Initial residual = 5.84253e-08, Final residual = 5.84253e-08, No Iterations 0
DILUPBiCGStab:  Solving for Uy, Initial residual = 6.50513e-08, Final residual = 6.50513e-08, No Iterations 0
DICPCG:  Solving for p, Initial residual = 8.8243e-07, Final residual = 8.8243e-07, No Iterations 0
time step continuity errors : sum local = 5.887e-10, global = 3.19953e-21, cumulative = 2.9556e-18
DICPCG:  Solving for p, Initial residual = 9.07043e-07, Final residual = 9.07043e-07, No Iterations 0
time step continuity errors : sum local = 6.01507e-10, global = 5.75552e-20, cumulative = 3.01316e-18
ExecutionTime = 15.09 s  ClockTime = 17 s

Time = 1.985

Courant Number mean: 0.0684036 max: 0.269
DILUPBiCGStab:  Solving for Ux, Initial residual = 5.81889e-08, Final residual = 5.81889e-08, No Iterations 0
DILUPBiCGStab:  Solving for Uy, Initial residual = 6.44973e-08, Final residual = 6.44973e-08, No Iterations 0
DICPCG:  Solving for p, Initial residual = 1.1223e-06, Final residual = 6.47308e-07, No Iterations 1
time step continuity errors : sum local = 4.67163e-10, global = -6.35705e-20, cumulative = 2.94959e-18
DICPCG:  Solving for p, Initial residual = 6.80302e-07, Final residual = 6.80302e-07, No Iterations 0
time step continuity errors : sum local = 4.84346e-10, global = -1.67054e-19, cumulative = 2.78253e-18
ExecutionTime = 15.09 s  ClockTime = 17 s

Time = 1.986

Courant Number mean: 0.0684036 max: 0.269
DILUPBiCGStab:  Solving for Ux, Initial residual = 5.82835e-08, Final residual = 5.82835e-08, No Iterations 0
DILUPBiCGStab:  Solving for Uy, Initial residual = 6.49479e-08, Final residual = 6.49479e-08, No Iterations 0
DICPCG:  Solving for p, Initial residual = 1.09517e-06, Final residual = 6.08003e-07, No Iterations 1
time step continuity errors : sum local = 4.47323e-10, global = 1.44095e-20, cumulative = 2.79694e-18
DICPCG:  Solving for p, Initial residual = 6.21614e-07, Final residual = 6.21614e-07, No Iterations 0
time step continuity errors : sum local = 4.54406e-10, global = -4.68416e-20, cumulative = 2.7501e-18
ExecutionTime = 15.09 s  ClockTime = 17 s

Time = 1.987

Courant Number mean: 0.0684036 max: 0.269
DILUPBiCGStab:  Solving for Ux, Initial residual = 5.74232e-08, Final residual = 5.74232e-08, No Iterations 0
DILUPBiCGStab:  Solving for Uy, Initial residual = 6.42848e-08, Final residual = 6.42848e-08, No Iterations 0
DICPCG:  Solving for p, Initial residual = 8.33499e-07, Final residual = 8.33499e-07, No Iterations 0
time step continuity errors : sum local = 5.64659e-10, global = -2.06425e-19, cumulative = 2.54368e-18
DICPCG:  Solving for p, Initial residual = 8.53347e-07, Final residual = 8.53347e-07, No Iterations 0
time step continuity errors : sum local = 5.74987e-10, global = 1.69473e-20, cumulative = 2.56062e-18
ExecutionTime = 15.09 s  ClockTime = 17 s

Time = 1.988

Courant Number mean: 0.0684036 max: 0.269
DILUPBiCGStab:  Solving for Ux, Initial residual = 5.71978e-08, Final residual = 5.71978e-08, No Iterations 0
DILUPBiCGStab:  Solving for Uy, Initial residual = 6.37382e-08, Final residual = 6.37382e-08, No Iterations 0
DICPCG:  Solving for p, Initial residual = 1.04762e-06, Final residual = 5.80671e-07, No Iterations 1
time step continuity errors : sum local = 4.34064e-10, global = -1.32349e-22, cumulative = 2.56049e-18
DICPCG:  Solving for p, Initial residual = 6.08866e-07, Final residual = 6.08866e-07, No Iterations 0
time step continuity errors : sum local = 4.48735e-10, global = 2.17813e-19, cumulative = 2.7783e-18
ExecutionTime = 15.09 s  ClockTime = 17 s

Time = 1.989

Courant Number mean: 0.0684036 max: 0.269
DILUPBiCGStab:  Solving for Ux, Initial residual = 5.72601e-08, Final residual = 5.72601e-08, No Iterations 0
DILUPBiCGStab:  Solving for Uy, Initial residual = 6.40794e-08, Final residual = 6.40794e-08, No Iterations 0
DICPCG:  Solving for p, Initial residual = 9.86622e-07, Final residual = 9.86622e-07, No Iterations 0
time step continuity errors : sum local = 6.45298e-10, global = -7.20772e-20, cumulative = 2.70623e-18
DICPCG:  Solving for p, Initial residual = 1.02246e-06, Final residual = 5.47402e-07, No Iterations 1
time step continuity errors : sum local = 4.17452e-10, global = 2.32272e-20, cumulative = 2.72945e-18
ExecutionTime = 15.09 s  ClockTime = 17 s

Time = 1.99

Courant Number mean: 0.0684036 max: 0.269
DILUPBiCGStab:  Solving for Ux, Initial residual = 5.648e-08, Final residual = 5.648e-08, No Iterations 0
DILUPBiCGStab:  Solving for Uy, Initial residual = 6.3483e-08, Final residual = 6.3483e-08, No Iterations 0
DICPCG:  Solving for p, Initial residual = 7.47897e-07, Final residual = 7.47897e-07, No Iterations 0
time step continuity errors : sum local = 5.21778e-10, global = -7.64613e-20, cumulative = 2.65299e-18
DICPCG:  Solving for p, Initial residual = 7.68106e-07, Final residual = 7.68106e-07, No Iterations 0
time step continuity errors : sum local = 5.32294e-10, global = 4.62592e-20, cumulative = 2.69925e-18
ExecutionTime = 15.09 s  ClockTime = 17 s

Time = 1.991

Courant Number mean: 0.0684036 max: 0.269
DILUPBiCGStab:  Solving for Ux, Initial residual = 5.62596e-08, Final residual = 5.62596e-08, No Iterations 0
DILUPBiCGStab:  Solving for Uy, Initial residual = 6.29397e-08, Final residual = 6.29397e-08, No Iterations 0
DICPCG:  Solving for p, Initial residual = 9.60234e-07, Final residual = 9.60234e-07, No Iterations 0
time step continuity errors : sum local = 6.32266e-10, global = 1.5596e-19, cumulative = 2.85521e-18
DICPCG:  Solving for p, Initial residual = 9.86277e-07, Final residual = 9.86277e-07, No Iterations 0
time step continuity errors : sum local = 6.45817e-10, global = -1.23799e-19, cumulative = 2.73141e-18
ExecutionTime = 15.09 s  ClockTime = 17 s

Time = 1.992

Courant Number mean: 0.0684036 max: 0.269
DILUPBiCGStab:  Solving for Ux, Initial residual = 5.60612e-08, Final residual = 5.60612e-08, No Iterations 0
DILUPBiCGStab:  Solving for Uy, Initial residual = 6.24283e-08, Final residual = 6.24283e-08, No Iterations 0
DICPCG:  Solving for p, Initial residual = 1.17094e-06, Final residual = 5.58651e-07, No Iterations 1
time step continuity errors : sum local = 4.24432e-10, global = -7.0853e-20, cumulative = 2.66056e-18
DICPCG:  Solving for p, Initial residual = 5.99786e-07, Final residual = 5.99786e-07, No Iterations 0
time step continuity errors : sum local = 4.45836e-10, global = -5.56659e-20, cumulative = 2.60489e-18
ExecutionTime = 15.09 s  ClockTime = 17 s

Time = 1.993

Courant Number mean: 0.0684036 max: 0.269
DILUPBiCGStab:  Solving for Ux, Initial residual = 5.64436e-08, Final residual = 5.64436e-08, No Iterations 0
DILUPBiCGStab:  Solving for Uy, Initial residual = 6.31824e-08, Final residual = 6.31824e-08, No Iterations 0
DICPCG:  Solving for p, Initial residual = 1.1092e-06, Final residual = 5.47935e-07, No Iterations 1
time step continuity errors : sum local = 4.1946e-10, global = 5.55865e-21, cumulative = 2.61045e-18
DICPCG:  Solving for p, Initial residual = 5.61893e-07, Final residual = 5.61893e-07, No Iterations 0
time step continuity errors : sum local = 4.26723e-10, global = -5.98879e-21, cumulative = 2.60446e-18
ExecutionTime = 15.09 s  ClockTime = 17 s

Time = 1.994

Courant Number mean: 0.0684036 max: 0.269
DILUPBiCGStab:  Solving for Ux, Initial residual = 5.53574e-08, Final residual = 5.53574e-08, No Iterations 0
DILUPBiCGStab:  Solving for Uy, Initial residual = 6.20752e-08, Final residual = 6.20752e-08, No Iterations 0
DICPCG:  Solving for p, Initial residual = 7.45902e-07, Final residual = 7.45902e-07, No Iterations 0
time step continuity errors : sum local = 5.2247e-10, global = 8.01902e-20, cumulative = 2.68465e-18
DICPCG:  Solving for p, Initial residual = 7.67651e-07, Final residual = 7.67651e-07, No Iterations 0
time step continuity errors : sum local = 5.33787e-10, global = 7.50087e-20, cumulative = 2.75966e-18
ExecutionTime = 15.09 s  ClockTime = 17 s

Time = 1.995

Courant Number mean: 0.0684036 max: 0.269
DILUPBiCGStab:  Solving for Ux, Initial residual = 5.51569e-08, Final residual = 5.51569e-08, No Iterations 0
DILUPBiCGStab:  Solving for Uy, Initial residual = 6.15678e-08, Final residual = 6.15678e-08, No Iterations 0
DICPCG:  Solving for p, Initial residual = 9.4092e-07, Final residual = 9.4092e-07, No Iterations 0
time step continuity errors : sum local = 6.23946e-10, global = 5.21752e-20, cumulative = 2.81184e-18
DICPCG:  Solving for p, Initial residual = 9.68169e-07, Final residual = 9.68169e-07, No Iterations 0
time step continuity errors : sum local = 6.38125e-10, global = 3.68691e-20, cumulative = 2.84871e-18
ExecutionTime = 15.09 s  ClockTime = 17 s

Time = 1.996

Courant Number mean: 0.0684036 max: 0.269
DILUPBiCGStab:  Solving for Ux, Initial residual = 5.4975e-08, Final residual = 5.4975e-08, No Iterations 0
DILUPBiCGStab:  Solving for Uy, Initial residual = 6.10885e-08, Final residual = 6.10885e-08, No Iterations 0
DICPCG:  Solving for p, Initial residual = 1.13801e-06, Final residual = 6.48813e-07, No Iterations 1
time step continuity errors : sum local = 4.72935e-10, global = -1.83608e-19, cumulative = 2.6651e-18
DICPCG:  Solving for p, Initial residual = 6.9429e-07, Final residual = 6.9429e-07, No Iterations 0
time step continuity errors : sum local = 4.96629e-10, global = -3.79908e-20, cumulative = 2.62711e-18
ExecutionTime = 15.09 s  ClockTime = 17 s

Time = 1.997

Courant Number mean: 0.0684037 max: 0.269
DILUPBiCGStab:  Solving for Ux, Initial residual = 5.5249e-08, Final residual = 5.5249e-08, No Iterations 0
DILUPBiCGStab:  Solving for Uy, Initial residual = 6.18801e-08, Final residual = 6.18801e-08, No Iterations 0
DICPCG:  Solving for p, Initial residual = 1.19455e-06, Final residual = 6.18058e-07, No Iterations 1
time step continuity errors : sum local = 4.57409e-10, global = -1.4565e-19, cumulative = 2.48146e-18
DICPCG:  Solving for p, Initial residual = 6.36435e-07, Final residual = 6.36435e-07, No Iterations 0
time step continuity errors : sum local = 4.66971e-10, global = 3.51585e-20, cumulative = 2.51662e-18
ExecutionTime = 15.09 s  ClockTime = 17 s

Time = 1.998

Courant Number mean: 0.0684037 max: 0.269
DILUPBiCGStab:  Solving for Ux, Initial residual = 5.43225e-08, Final residual = 5.43225e-08, No Iterations 0
DILUPBiCGStab:  Solving for Uy, Initial residual = 6.10508e-08, Final residual = 6.10508e-08, No Iterations 0
DICPCG:  Solving for p, Initial residual = 8.71479e-07, Final residual = 8.71479e-07, No Iterations 0
time step continuity errors : sum local = 5.89275e-10, global = 1.56112e-19, cumulative = 2.67273e-18
DICPCG:  Solving for p, Initial residual = 8.96376e-07, Final residual = 8.96376e-07, No Iterations 0
time step continuity errors : sum local = 6.0223e-10, global = -7.40492e-20, cumulative = 2.59868e-18
ExecutionTime = 15.1 s  ClockTime = 17 s

Time = 1.999

Courant Number mean: 0.0684037 max: 0.269
DILUPBiCGStab:  Solving for Ux, Initial residual = 5.40922e-08, Final residual = 5.40922e-08, No Iterations 0
DILUPBiCGStab:  Solving for Uy, Initial residual = 6.05227e-08, Final residual = 6.05227e-08, No Iterations 0
DICPCG:  Solving for p, Initial residual = 1.10804e-06, Final residual = 6.34836e-07, No Iterations 1
time step continuity errors : sum local = 4.66826e-10, global = -2.56327e-20, cumulative = 2.57305e-18
DICPCG:  Solving for p, Initial residual = 6.69357e-07, Final residual = 6.69357e-07, No Iterations 0
time step continuity errors : sum local = 4.84807e-10, global = 7.48532e-20, cumulative = 2.6479e-18
ExecutionTime = 15.1 s  ClockTime = 17 s

Time = 2

Courant Number mean: 0.0684037 max: 0.269
DILUPBiCGStab:  Solving for Ux, Initial residual = 5.4189e-08, Final residual = 5.4189e-08, No Iterations 0
DILUPBiCGStab:  Solving for Uy, Initial residual = 6.09884e-08, Final residual = 6.09884e-08, No Iterations 0
DICPCG:  Solving for p, Initial residual = 1.08342e-06, Final residual = 5.98398e-07, No Iterations 1
time step continuity errors : sum local = 4.4834e-10, global = -2.95869e-19, cumulative = 2.35203e-18
DICPCG:  Solving for p, Initial residual = 6.13713e-07, Final residual = 6.13713e-07, No Iterations 0
time step continuity errors : sum local = 4.56309e-10, global = 1.33649e-19, cumulative = 2.48568e-18
ExecutionTime = 15.1 s  ClockTime = 17 s

streamLine streamlines write:
    seeded 24 particles
    Tracks:24
    Total samples:41143
End

